(PID.TID 0000.0001) 
(PID.TID 0000.0001) // ======================================================
(PID.TID 0000.0001) //                      MITgcm UV
(PID.TID 0000.0001) //                      =========
(PID.TID 0000.0001) // ======================================================
(PID.TID 0000.0001) // execution environment starting up...
(PID.TID 0000.0001) 
(PID.TID 0000.0001) // Build user:        jahn
(PID.TID 0000.0001) // Build host:        node200
(PID.TID 0000.0001) // Build date:        Thu Jul 31 16:17:49 EDT 2014
(PID.TID 0000.0001) 
(PID.TID 0000.0001) // =======================================================
(PID.TID 0000.0001) // Execution Environment parameter file "eedata"
(PID.TID 0000.0001) // =======================================================
(PID.TID 0000.0001) ># Example "eedata" file
(PID.TID 0000.0001) ># Lines beginning "#" are comments
(PID.TID 0000.0001) ># nTx - No. threads per process in X
(PID.TID 0000.0001) ># nTy - No. threads per process in Y
(PID.TID 0000.0001) > &EEPARMS
(PID.TID 0000.0001) > nTx=1,nTy=1
(PID.TID 0000.0001) > /
(PID.TID 0000.0001) ># Note: Some systems use & as the
(PID.TID 0000.0001) ># namelist terminator. Other systems
(PID.TID 0000.0001) ># use a / character (as shown here).
(PID.TID 0000.0001) 
(PID.TID 0000.0001) // =======================================================
(PID.TID 0000.0001) // Computational Grid Specification ( see files "SIZE.h" )
(PID.TID 0000.0001) //                                  ( and "eedata"       )
(PID.TID 0000.0001) // =======================================================
(PID.TID 0000.0001)      nPx =    8 ; /* No. processes in X */
(PID.TID 0000.0001)      nPy =    4 ; /* No. processes in Y */
(PID.TID 0000.0001)      nSx =    1 ; /* No. tiles in X per process */
(PID.TID 0000.0001)      nSy =    1 ; /* No. tiles in Y per process */
(PID.TID 0000.0001)      sNx =   45 ; /* Tile size in X */
(PID.TID 0000.0001)      sNy =   40 ; /* Tile size in Y */
(PID.TID 0000.0001)      OLx =    4 ; /* Tile overlap distance in X */
(PID.TID 0000.0001)      OLy =    4 ; /* Tile overlap distance in Y */
(PID.TID 0000.0001)      nTx =    1 ; /* No. threads in X per process */
(PID.TID 0000.0001)      nTy =    1 ; /* No. threads in Y per process */
(PID.TID 0000.0001)       Nr =   23 ; /* No. levels in the vertical   */
(PID.TID 0000.0001)       Nx =  360 ; /* Total domain size in X ( = nPx*nSx*sNx ) */
(PID.TID 0000.0001)       Ny =  160 ; /* Total domain size in Y ( = nPy*nSy*sNy ) */
(PID.TID 0000.0001)   nTiles =    1 ; /* Total no. tiles per process ( = nSx*nSy ) */
(PID.TID 0000.0001)   nProcs =   32 ; /* Total no. processes ( = nPx*nPy ) */
(PID.TID 0000.0001) nThreads =    1 ; /* Total no. threads per process ( = nTx*nTy ) */
(PID.TID 0000.0001) usingMPI =    T ; /* Flag used to control whether MPI is in use */
(PID.TID 0000.0001)                   /*  note: To execute a program with MPI calls */
(PID.TID 0000.0001)                   /*  it must be launched appropriately e.g     */
(PID.TID 0000.0001)                   /*  "mpirun -np 64 ......"                    */
(PID.TID 0000.0001) useCoupler=    F ;/* Flag used to control communications with   */
(PID.TID 0000.0001)                   /*  other model components, through a coupler */
(PID.TID 0000.0001) debugMode =    F ; /* print debug msg. (sequence of S/R calls)  */
(PID.TID 0000.0001) printMapIncludesZeros=    F ; /* print zeros in Std.Output maps */
(PID.TID 0000.0001) maxLengthPrt1D=   65 /* maxLength of 1D array printed to StdOut */
(PID.TID 0000.0001) 
(PID.TID 0000.0001) ======= Starting MPI parallel Run =========
(PID.TID 0000.0001)  My Processor Name (len:  7 ) = node200
(PID.TID 0000.0001)  Located at (  0,  0) on processor grid (0:  7,0:  3)
(PID.TID 0000.0001)  Origin at  (     1,     1) on global grid (1:   360,1:   160)
(PID.TID 0000.0001)  North neighbor = processor 0001
(PID.TID 0000.0001)  South neighbor = processor 0003
(PID.TID 0000.0001)   East neighbor = processor 0004
(PID.TID 0000.0001)   West neighbor = processor 0028
(PID.TID 0000.0001) // ======================================================
(PID.TID 0000.0001) // Mapping of tiles to threads
(PID.TID 0000.0001) // ======================================================
(PID.TID 0000.0001) // -o- Thread   1, tiles (   1:   1,   1:   1)
(PID.TID 0000.0001) 
(PID.TID 0000.0001) // ======================================================
(PID.TID 0000.0001) // Tile <-> Tile connectvity table
(PID.TID 0000.0001) // ======================================================
(PID.TID 0000.0001) // Tile number: 000001 (process no. = 000000)
(PID.TID 0000.0001) //        WEST: Tile = 000008, Process = 000028, Comm = messages
(PID.TID 0000.0001) //                bi = 000001, bj = 000001
(PID.TID 0000.0001) //        EAST: Tile = 000002, Process = 000004, Comm = messages
(PID.TID 0000.0001) //                bi = 000001, bj = 000001
(PID.TID 0000.0001) //       SOUTH: Tile = 000025, Process = 000003, Comm = messages
(PID.TID 0000.0001) //                bi = 000001, bj = 000001
(PID.TID 0000.0001) //       NORTH: Tile = 000009, Process = 000001, Comm = messages
(PID.TID 0000.0001) //                bi = 000001, bj = 000001
(PID.TID 0000.0001) 
(PID.TID 0000.0001)  INI_PARMS: opening model parameter file "data"
(PID.TID 0000.0001)  OPEN_COPY_DATA_FILE: opening file data
(PID.TID 0000.0001) // =======================================================
(PID.TID 0000.0001) // Removing comments from "data"
(PID.TID 0000.0001) // =======================================================
(PID.TID 0000.0001)    1 &PARM01
(PID.TID 0000.0001)    2 tRef= 24.0 , 23.0 , 22.0 , 21.0 , 20.0 ,
(PID.TID 0000.0001)    3       19.0 , 18.0 , 17.0 , 16.0 , 15.0 ,
(PID.TID 0000.0001)    4       14.0 , 13.0 , 12.0 , 11.0 , 10.0 ,
(PID.TID 0000.0001)    5        9.0 ,  8.0 ,  7.0 ,  6.0,   5.0 ,
(PID.TID 0000.0001)    6        4.0 ,  3.0 ,  2.0 ,
(PID.TID 0000.0001)    7 sRef= 34.65, 34.75, 34.82, 34.87, 34.90,
(PID.TID 0000.0001)    8       34.90, 34.86, 34.78, 34.69, 34.60,
(PID.TID 0000.0001)    9       34.58, 34.62, 34.68, 34.72, 34.73,
(PID.TID 0000.0001)   10       34.74, 34.73, 34.73, 34.72, 34.72,
(PID.TID 0000.0001)   11       34.71, 34.70, 34.69,
(PID.TID 0000.0001)   12 no_slip_sides=.false.,
(PID.TID 0000.0001)   13 no_slip_bottom=.TRUE.,
(PID.TID 0000.0001)   14 viscAz=1.E-3,
(PID.TID 0000.0001)   15 viscAh=1.E4,
(PID.TID 0000.0001)   16 diffKhT=1.E2,
(PID.TID 0000.0001)   17 diffKzT=1.E-5,
(PID.TID 0000.0001)   18 diffKhS=1.E2,
(PID.TID 0000.0001)   19 diffKzS=1.E-5,
(PID.TID 0000.0001)   20 beta=1.E-11,
(PID.TID 0000.0001)   21 tAlpha=2.E-4,
(PID.TID 0000.0001)   22 sBeta =7.4E-4,
(PID.TID 0000.0001)   23 gravity=9.81,
(PID.TID 0000.0001)   24 gBaro=9.81,
(PID.TID 0000.0001)   25 rigidLid=.FALSE.,
(PID.TID 0000.0001)   26 implicitFreeSurface=.true.,
(PID.TID 0000.0001)   27 eosType='POLY3',
(PID.TID 0000.0001)   28 saltStepping=.TRUE.,
(PID.TID 0000.0001)   29 tempStepping=.TRUE.,
(PID.TID 0000.0001)   30 momStepping=.TRUE.,
(PID.TID 0000.0001)   31 implicitDiffusion=.true.,
(PID.TID 0000.0001)   32 implicitViscosity=.true.,
(PID.TID 0000.0001)   33 allowFreezing=.false.,
(PID.TID 0000.0001)   34 useSingleCpuIO=.TRUE.,
(PID.TID 0000.0001)   35 useCDscheme=.FALSE.,
(PID.TID 0000.0001)   36 tempAdvScheme = 3,
(PID.TID 0000.0001)   37 saltAdvScheme = 3,
(PID.TID 0000.0001)   38 readBinaryPrec= 64,
(PID.TID 0000.0001)   39 writeBinaryPrec= 64,
(PID.TID 0000.0001)   40 /
(PID.TID 0000.0001)   41
(PID.TID 0000.0001)   42 &PARM02
(PID.TID 0000.0001)   43 cg2dMaxIters=300,
(PID.TID 0000.0001)   44 cg2dTargetResidual=1.E-7,
(PID.TID 0000.0001)   45 /
(PID.TID 0000.0001)   46
(PID.TID 0000.0001)   47 &PARM03
(PID.TID 0000.0001)   48  nIter0=0,
(PID.TID 0000.0001)   49  nTimeSteps=4,
(PID.TID 0000.0001)   50  deltaTmom=10800.,
(PID.TID 0000.0001)   51  deltaTtracer=10800.,
(PID.TID 0000.0001)   52  deltaTClock =10800.,
(PID.TID 0000.0001)   53  abEps=0.1,
(PID.TID 0000.0001)   54  pChkptFreq  = 31104000.,
(PID.TID 0000.0001)   55  chkptFreq   = 31104000.,
(PID.TID 0000.0001)   56  dumpFreq    = 31104000.,
(PID.TID 0000.0001)   57  taveFreq    = 31104000.,
(PID.TID 0000.0001)   58  monitorFreq = 2592000.,
(PID.TID 0000.0001)   59  monitorFreq = 1.,
(PID.TID 0000.0001)   60  tauThetaClimRelax=0.,
(PID.TID 0000.0001)   61  tauSaltClimRelax=0.,
(PID.TID 0000.0001)   62  periodicExternalForcing=.TRUE.,
(PID.TID 0000.0001)   63  externForcingPeriod=2592000.,
(PID.TID 0000.0001)   64  externForcingCycle=31104000.,
(PID.TID 0000.0001)   65 /
(PID.TID 0000.0001)   66
(PID.TID 0000.0001)   67 &PARM04
(PID.TID 0000.0001)   68 usingCartesianGrid=.FALSE.,
(PID.TID 0000.0001)   69 usingSphericalPolarGrid=.TRUE.,
(PID.TID 0000.0001)   70 delX=360*1.E0,
(PID.TID 0000.0001)   71 delY=160*1.E0,
(PID.TID 0000.0001)   72 delZ=10.,10.,15.,20.,20.,25.,35.,50.,75.,
(PID.TID 0000.0001)   73 100.,150.,200.,275.,350.,415.,450.,500.,
(PID.TID 0000.0001)   74 500.,500.,500.,500.,500.,500.,
(PID.TID 0000.0001)   75 xgOrigin=0,
(PID.TID 0000.0001)   76 ygOrigin=-80.,
(PID.TID 0000.0001)   77 /
(PID.TID 0000.0001)   78
(PID.TID 0000.0001)   79 &PARM05
(PID.TID 0000.0001)   80 bathyFile=       '../../../input/eccov3_R8/bathy_fl.bin',
(PID.TID 0000.0001)   81 zonalWindFile=   '',
(PID.TID 0000.0001)   82 meridWindFile=   '',
(PID.TID 0000.0001)   83 thetaClimFile=   '',
(PID.TID 0000.0001)   84 saltClimFile=    '',
(PID.TID 0000.0001)   85 surfQFile=       '',
(PID.TID 0000.0001)   86 EmPmRFile=       '',
(PID.TID 0000.0001)   87 /
(PID.TID 0000.0001) // =======================================================
(PID.TID 0000.0001) // Parameter file "data"
(PID.TID 0000.0001) // =======================================================
(PID.TID 0000.0001) >#
(PID.TID 0000.0001) ># ******************************
(PID.TID 0000.0001) ># Model parameters
(PID.TID 0000.0001) ># Continuous equation parameters
(PID.TID 0000.0001) ># ******************************
(PID.TID 0000.0001) >&PARM01
(PID.TID 0000.0001) >tRef= 24.0 , 23.0 , 22.0 , 21.0 , 20.0 ,
(PID.TID 0000.0001) >      19.0 , 18.0 , 17.0 , 16.0 , 15.0 ,
(PID.TID 0000.0001) >      14.0 , 13.0 , 12.0 , 11.0 , 10.0 ,
(PID.TID 0000.0001) >       9.0 ,  8.0 ,  7.0 ,  6.0,   5.0 ,
(PID.TID 0000.0001) >       4.0 ,  3.0 ,  2.0 ,
(PID.TID 0000.0001) >sRef= 34.65, 34.75, 34.82, 34.87, 34.90,
(PID.TID 0000.0001) >      34.90, 34.86, 34.78, 34.69, 34.60,
(PID.TID 0000.0001) >      34.58, 34.62, 34.68, 34.72, 34.73,
(PID.TID 0000.0001) >      34.74, 34.73, 34.73, 34.72, 34.72,
(PID.TID 0000.0001) >      34.71, 34.70, 34.69,
(PID.TID 0000.0001) >no_slip_sides=.false.,
(PID.TID 0000.0001) >no_slip_bottom=.TRUE.,
(PID.TID 0000.0001) >viscAz=1.E-3,
(PID.TID 0000.0001) >viscAh=1.E4,
(PID.TID 0000.0001) >diffKhT=1.E2,
(PID.TID 0000.0001) >diffKzT=1.E-5,
(PID.TID 0000.0001) >diffKhS=1.E2,
(PID.TID 0000.0001) >diffKzS=1.E-5,
(PID.TID 0000.0001) >beta=1.E-11,
(PID.TID 0000.0001) >tAlpha=2.E-4,
(PID.TID 0000.0001) >sBeta =7.4E-4,
(PID.TID 0000.0001) >gravity=9.81,
(PID.TID 0000.0001) >gBaro=9.81,
(PID.TID 0000.0001) >rigidLid=.FALSE.,
(PID.TID 0000.0001) >implicitFreeSurface=.true.,
(PID.TID 0000.0001) >eosType='POLY3',
(PID.TID 0000.0001) >saltStepping=.TRUE.,
(PID.TID 0000.0001) >tempStepping=.TRUE.,
(PID.TID 0000.0001) >momStepping=.TRUE.,
(PID.TID 0000.0001) >implicitDiffusion=.true.,
(PID.TID 0000.0001) >implicitViscosity=.true.,
(PID.TID 0000.0001) >allowFreezing=.false.,
(PID.TID 0000.0001) >useSingleCpuIO=.TRUE.,
(PID.TID 0000.0001) >useCDscheme=.FALSE.,
(PID.TID 0000.0001) >tempAdvScheme = 3,
(PID.TID 0000.0001) >saltAdvScheme = 3,
(PID.TID 0000.0001) >readBinaryPrec= 64,
(PID.TID 0000.0001) >writeBinaryPrec= 64,
(PID.TID 0000.0001) >/
(PID.TID 0000.0001) >
(PID.TID 0000.0001) ># **************************
(PID.TID 0000.0001) ># Elliptic solver parameters
(PID.TID 0000.0001) ># **************************
(PID.TID 0000.0001) >&PARM02
(PID.TID 0000.0001) >cg2dMaxIters=300,
(PID.TID 0000.0001) >cg2dTargetResidual=1.E-7,
(PID.TID 0000.0001) >/
(PID.TID 0000.0001) >
(PID.TID 0000.0001) ># ************************
(PID.TID 0000.0001) ># Time stepping parameters
(PID.TID 0000.0001) ># ************************
(PID.TID 0000.0001) >&PARM03
(PID.TID 0000.0001) > nIter0=0,
(PID.TID 0000.0001) > nTimeSteps=4,
(PID.TID 0000.0001) > deltaTmom=10800.,
(PID.TID 0000.0001) > deltaTtracer=10800.,
(PID.TID 0000.0001) > deltaTClock =10800.,
(PID.TID 0000.0001) > abEps=0.1,
(PID.TID 0000.0001) > pChkptFreq  = 31104000.,
(PID.TID 0000.0001) > chkptFreq   = 31104000.,
(PID.TID 0000.0001) >#pChkptFreq  = 2592000.,
(PID.TID 0000.0001) >#chkptFreq   = 2592000.,
(PID.TID 0000.0001) > dumpFreq    = 31104000.,
(PID.TID 0000.0001) > taveFreq    = 31104000.,
(PID.TID 0000.0001) >#taveFreq    = 86400.,
(PID.TID 0000.0001) >#dumpFreq    = 2592000.,
(PID.TID 0000.0001) >#taveFreq    = 2592000.,
(PID.TID 0000.0001) > monitorFreq = 2592000.,
(PID.TID 0000.0001) > monitorFreq = 1.,
(PID.TID 0000.0001) >#monitorFreq = 31104000.,
(PID.TID 0000.0001) > tauThetaClimRelax=0.,
(PID.TID 0000.0001) > tauSaltClimRelax=0.,
(PID.TID 0000.0001) > periodicExternalForcing=.TRUE.,
(PID.TID 0000.0001) > externForcingPeriod=2592000.,
(PID.TID 0000.0001) > externForcingCycle=31104000.,
(PID.TID 0000.0001) >/
(PID.TID 0000.0001) >
(PID.TID 0000.0001) ># *******************
(PID.TID 0000.0001) ># Gridding parameters
(PID.TID 0000.0001) ># *******************
(PID.TID 0000.0001) >&PARM04
(PID.TID 0000.0001) >usingCartesianGrid=.FALSE.,
(PID.TID 0000.0001) >usingSphericalPolarGrid=.TRUE.,
(PID.TID 0000.0001) >delX=360*1.E0,
(PID.TID 0000.0001) >delY=160*1.E0,
(PID.TID 0000.0001) >delZ=10.,10.,15.,20.,20.,25.,35.,50.,75.,
(PID.TID 0000.0001) >100.,150.,200.,275.,350.,415.,450.,500.,
(PID.TID 0000.0001) >500.,500.,500.,500.,500.,500.,
(PID.TID 0000.0001) >xgOrigin=0,
(PID.TID 0000.0001) >ygOrigin=-80.,
(PID.TID 0000.0001) >/
(PID.TID 0000.0001) >
(PID.TID 0000.0001) ># **********
(PID.TID 0000.0001) ># Data Files
(PID.TID 0000.0001) ># **********
(PID.TID 0000.0001) >&PARM05
(PID.TID 0000.0001) >bathyFile=       '../../../input/eccov3_R8/bathy_fl.bin',
(PID.TID 0000.0001) >#hydrogThetaFile= 'input/LEVITUS_1x1_ptmp_NEW_corK',
(PID.TID 0000.0001) >#hydrogSaltFile=  'input/LEVITUS_1x1_salt_NEW_corK',
(PID.TID 0000.0001) >zonalWindFile=   '',
(PID.TID 0000.0001) >meridWindFile=   '',
(PID.TID 0000.0001) >thetaClimFile=   '',
(PID.TID 0000.0001) >saltClimFile=    '',
(PID.TID 0000.0001) >surfQFile=       '',
(PID.TID 0000.0001) >EmPmRFile=       '',
(PID.TID 0000.0001) >/
(PID.TID 0000.0001) 
(PID.TID 0000.0001)  INI_PARMS ; starts to read PARM01
(PID.TID 0000.0001)  INI_PARMS ; read PARM01 : OK
(PID.TID 0000.0001)  INI_PARMS ; starts to read PARM02
(PID.TID 0000.0001)  INI_PARMS ; read PARM02 : OK
(PID.TID 0000.0001)  INI_PARMS ; starts to read PARM03
(PID.TID 0000.0001)  INI_PARMS ; read PARM03 : OK
(PID.TID 0000.0001)  INI_PARMS ; starts to read PARM04
(PID.TID 0000.0001)  INI_PARMS ; read PARM04 : OK
(PID.TID 0000.0001)  INI_PARMS ; starts to read PARM05
(PID.TID 0000.0001)  INI_PARMS ; read PARM05 : OK
(PID.TID 0000.0001)  INI_PARMS: finished reading file "data"
(PID.TID 0000.0001)  PACKAGES_BOOT: opening data.pkg
(PID.TID 0000.0001)  OPEN_COPY_DATA_FILE: opening file data.pkg
(PID.TID 0000.0001) // =======================================================
(PID.TID 0000.0001) // Removing comments from "data.pkg"
(PID.TID 0000.0001) // =======================================================
(PID.TID 0000.0001)    1  &PACKAGES
(PID.TID 0000.0001)    2  useGMRedi=.TRUE.
(PID.TID 0000.0001)    3  usePTRACERS=.TRUE.
(PID.TID 0000.0001)    4  useGCHEM=.TRUE.,
(PID.TID 0000.0001)    5  useKPP=.TRUE.,
(PID.TID 0000.0001)    6  useMNC=.TRUE.,
(PID.TID 0000.0001)    7  useEXF=.TRUE.,
(PID.TID 0000.0001)    8  useOFFLINE=.TRUE.,
(PID.TID 0000.0001)    9  useDIAGNOSTICS=.TRUE.,
(PID.TID 0000.0001)   10  /
(PID.TID 0000.0001) // =======================================================
(PID.TID 0000.0001) // Parameter file "data.pkg"
(PID.TID 0000.0001) // =======================================================
(PID.TID 0000.0001) ># Packages
(PID.TID 0000.0001) > &PACKAGES
(PID.TID 0000.0001) > useGMRedi=.TRUE.
(PID.TID 0000.0001) > usePTRACERS=.TRUE.
(PID.TID 0000.0001) > useGCHEM=.TRUE.,
(PID.TID 0000.0001) > useKPP=.TRUE.,
(PID.TID 0000.0001) > useMNC=.TRUE.,
(PID.TID 0000.0001) > useEXF=.TRUE.,
(PID.TID 0000.0001) > useOFFLINE=.TRUE.,
(PID.TID 0000.0001) > useDIAGNOSTICS=.TRUE.,
(PID.TID 0000.0001) > /
(PID.TID 0000.0001) 
(PID.TID 0000.0001)  PACKAGES_BOOT: finished reading data.pkg
(PID.TID 0000.0001)  PACKAGES_BOOT: On/Off package Summary
 --------  pkgs with a standard "usePKG" On/Off switch in "data.pkg":  --------
 pkg/kpp                  compiled   and   used ( useKPP                   = T )
 pkg/gmredi               compiled   and   used ( useGMRedi                = T )
 pkg/cal                  compiled   and   used ( useCAL                   = T )
 pkg/exf                  compiled   and   used ( useEXF                   = T )
 pkg/sbo                  compiled but not used ( useSBO                   = F )
 pkg/ptracers             compiled   and   used ( usePTRACERS              = T )
 pkg/gchem                compiled   and   used ( useGCHEM                 = T )
 pkg/offline              compiled   and   used ( useOffLine               = T )
 pkg/diagnostics          compiled   and   used ( useDiagnostics           = T )
 pkg/mnc                  compiled   and   used ( useMNC                   = T )
 -------- pkgs without standard "usePKG" On/Off switch in "data.pkg":  --------
 pkg/generic_advdiff      compiled   and   used ( useGAD                   = T )
 pkg/mom_common           compiled   and   used ( momStepping              = T )
 pkg/mom_vecinv           compiled but not used ( +vectorInvariantMomentum = F )
 pkg/mom_fluxform         compiled   and   used ( & not vectorInvariantMom = T )
 pkg/monitor              compiled   and   used ( monitorFreq > 0.         = T )
 pkg/timeave              compiled   and   used ( taveFreq > 0.            = T )
 pkg/rw                   compiled   and   used
 pkg/mdsio                compiled   and   used
(PID.TID 0000.0001)  PACKAGES_BOOT: End of package Summary
(PID.TID 0000.0001) 
(PID.TID 0000.0001)  MNC_READPARMS: opening file 'data.mnc'
(PID.TID 0000.0001)  OPEN_COPY_DATA_FILE: opening file data.mnc
(PID.TID 0000.0001) // =======================================================
(PID.TID 0000.0001) // Removing comments from "data.mnc"
(PID.TID 0000.0001) // =======================================================
(PID.TID 0000.0001)    1  &MNC_01
(PID.TID 0000.0001)    2  mnc_use_outdir=.TRUE.,
(PID.TID 0000.0001)    3  mnc_outdir_str='ecco_gud_',
(PID.TID 0000.0001)    4  mnc_outdir_date=.TRUE.,
(PID.TID 0000.0001)    5  monitor_mnc=.FALSE.,
(PID.TID 0000.0001)    6  snapshot_mnc=.TRUE.,
(PID.TID 0000.0001)    7  timeave_mnc=.TRUE.,
(PID.TID 0000.0001)    8  pickup_read_mnc=.FALSE.,
(PID.TID 0000.0001)    9  pickup_write_mnc=.FALSE.,
(PID.TID 0000.0001)   10  mnc_filefreq = 311040000.,
(PID.TID 0000.0001)   11  mnc_max_fsize = 2e12,
(PID.TID 0000.0001)   12  /
(PID.TID 0000.0001) // =======================================================
(PID.TID 0000.0001) // Parameter file "data.mnc"
(PID.TID 0000.0001) // =======================================================
(PID.TID 0000.0001) ># Example "data.mnc" file
(PID.TID 0000.0001) ># Lines beginning "#" are comments
(PID.TID 0000.0001) > &MNC_01
(PID.TID 0000.0001) ># mnc_echo_gvtypes=.FALSE.,
(PID.TID 0000.0001) ># mnc_use_indir=.FALSE.,
(PID.TID 0000.0001) > mnc_use_outdir=.TRUE.,
(PID.TID 0000.0001) > mnc_outdir_str='ecco_gud_',
(PID.TID 0000.0001) > mnc_outdir_date=.TRUE.,
(PID.TID 0000.0001) > monitor_mnc=.FALSE.,
(PID.TID 0000.0001) > snapshot_mnc=.TRUE.,
(PID.TID 0000.0001) > timeave_mnc=.TRUE.,
(PID.TID 0000.0001) > pickup_read_mnc=.FALSE.,
(PID.TID 0000.0001) > pickup_write_mnc=.FALSE.,
(PID.TID 0000.0001) > mnc_filefreq = 311040000.,
(PID.TID 0000.0001) > mnc_max_fsize = 2e12,
(PID.TID 0000.0001) > /
(PID.TID 0000.0001) ># Note: Some systems use & as the
(PID.TID 0000.0001) ># namelist terminator. Other systems
(PID.TID 0000.0001) ># use a / character.
(PID.TID 0000.0001) 
(PID.TID 0000.0001)  MNC_READPARMS: finished reading data.mnc
(PID.TID 0000.0001) CAL_READPARMS: opening data.cal
(PID.TID 0000.0001)  OPEN_COPY_DATA_FILE: opening file data.cal
(PID.TID 0000.0001) // =======================================================
(PID.TID 0000.0001) // Removing comments from "data.cal"
(PID.TID 0000.0001) // =======================================================
(PID.TID 0000.0001)    1  &CAL_NML
(PID.TID 0000.0001)    2  TheCalendar='model',
(PID.TID 0000.0001)    3  startDate_1=20000101,
(PID.TID 0000.0001)    4  startDate_2=000000,
(PID.TID 0000.0001)    5  calendarDumps = .TRUE.
(PID.TID 0000.0001)    6  /
(PID.TID 0000.0001) // =======================================================
(PID.TID 0000.0001) // Parameter file "data.cal"
(PID.TID 0000.0001) // =======================================================
(PID.TID 0000.0001) ># *******************
(PID.TID 0000.0001) ># Calendar Parameters
(PID.TID 0000.0001) ># *******************
(PID.TID 0000.0001) > &CAL_NML
(PID.TID 0000.0001) > TheCalendar='model',
(PID.TID 0000.0001) > startDate_1=20000101,
(PID.TID 0000.0001) > startDate_2=000000,
(PID.TID 0000.0001) > calendarDumps = .TRUE.
(PID.TID 0000.0001) > /
(PID.TID 0000.0001) 
(PID.TID 0000.0001) CAL_READPARMS: finished reading data.cal
(PID.TID 0000.0001) EXF_READPARMS: opening data.exf
(PID.TID 0000.0001)  OPEN_COPY_DATA_FILE: opening file data.exf
(PID.TID 0000.0001) // =======================================================
(PID.TID 0000.0001) // Removing comments from "data.exf"
(PID.TID 0000.0001) // =======================================================
(PID.TID 0000.0001)    1  &EXF_NML_01
(PID.TID 0000.0001)    2  exf_iprec         = 32,
(PID.TID 0000.0001)    3  exf_yftype        = 'RL',
(PID.TID 0000.0001)    4  useExfCheckRange  = .FALSE.,
(PID.TID 0000.0001)    5  repeatPeriod = 31104000.,
(PID.TID 0000.0001)    6  /
(PID.TID 0000.0001)    7  &EXF_NML_02
(PID.TID 0000.0001)    8  /
(PID.TID 0000.0001)    9  &EXF_NML_03
(PID.TID 0000.0001)   10  /
(PID.TID 0000.0001)   11  &EXF_NML_04
(PID.TID 0000.0001)   12  /
(PID.TID 0000.0001) // =======================================================
(PID.TID 0000.0001) // Parameter file "data.exf"
(PID.TID 0000.0001) // =======================================================
(PID.TID 0000.0001) ># *********************
(PID.TID 0000.0001) ># External Forcing Data
(PID.TID 0000.0001) ># *********************
(PID.TID 0000.0001) >#
(PID.TID 0000.0001) > &EXF_NML_01
(PID.TID 0000.0001) > exf_iprec         = 32,
(PID.TID 0000.0001) > exf_yftype        = 'RL',
(PID.TID 0000.0001) ># useExfYearlyFields= .TRUE.,
(PID.TID 0000.0001) ># twoDigitYear      = .TRUE.,
(PID.TID 0000.0001) > useExfCheckRange  = .FALSE.,
(PID.TID 0000.0001) > repeatPeriod = 31104000.,
(PID.TID 0000.0001) > /
(PID.TID 0000.0001) >#
(PID.TID 0000.0001) > &EXF_NML_02
(PID.TID 0000.0001) > /
(PID.TID 0000.0001) >#
(PID.TID 0000.0001) > &EXF_NML_03
(PID.TID 0000.0001) > /
(PID.TID 0000.0001) >#
(PID.TID 0000.0001) > &EXF_NML_04
(PID.TID 0000.0001) > /
(PID.TID 0000.0001) 
(PID.TID 0000.0001) EXF_READPARMS: reading EXF_NML_01
(PID.TID 0000.0001) EXF_READPARMS: reading EXF_NML_02
(PID.TID 0000.0001) EXF_READPARMS: reading EXF_NML_03
(PID.TID 0000.0001) EXF_READPARMS: finished reading data.exf
(PID.TID 0000.0001)  KPP_INIT: opening data.kpp
(PID.TID 0000.0001)  OPEN_COPY_DATA_FILE: opening file data.kpp
(PID.TID 0000.0001) // =======================================================
(PID.TID 0000.0001) // Removing comments from "data.kpp"
(PID.TID 0000.0001) // =======================================================
(PID.TID 0000.0001)    1  &KPP_PARM01
(PID.TID 0000.0001)    2  /
(PID.TID 0000.0001) // =======================================================
(PID.TID 0000.0001) // Parameter file "data.kpp"
(PID.TID 0000.0001) // =======================================================
(PID.TID 0000.0001) >#
(PID.TID 0000.0001) ># ***************
(PID.TID 0000.0001) ># Open boundaries
(PID.TID 0000.0001) ># ***************
(PID.TID 0000.0001) > &KPP_PARM01
(PID.TID 0000.0001) ># KPPwriteState   = .TRUE.,
(PID.TID 0000.0001) > /
(PID.TID 0000.0001) 
(PID.TID 0000.0001)  KPP_INIT: finished reading data.kpp
(PID.TID 0000.0001)  GM_READPARMS: opening data.gmredi
(PID.TID 0000.0001)  OPEN_COPY_DATA_FILE: opening file data.gmredi
(PID.TID 0000.0001) // =======================================================
(PID.TID 0000.0001) // Removing comments from "data.gmredi"
(PID.TID 0000.0001) // =======================================================
(PID.TID 0000.0001)    1
(PID.TID 0000.0001)    2
(PID.TID 0000.0001)    3 (default=GM_background_K)
(PID.TID 0000.0001)    4 form)
(PID.TID 0000.0001)    5
(PID.TID 0000.0001)    6  &GM_PARM01
(PID.TID 0000.0001)    7   GM_Small_Number    = 1.D-20,
(PID.TID 0000.0001)    8   GM_slopeSqCutoff   = 1.D+08,
(PID.TID 0000.0001)    9   GM_AdvForm         = .FALSE.,
(PID.TID 0000.0001)   10   GM_isopycK         = 1.D+3,
(PID.TID 0000.0001)   11   GM_background_K    = 1.D+3,
(PID.TID 0000.0001)   12   GM_maxSlope        = 1.D-2,
(PID.TID 0000.0001)   13   GM_taper_scheme    = 'dm95',
(PID.TID 0000.0001)   14   GM_Kmin_horiz      = 50.,
(PID.TID 0000.0001)   15   GM_Scrit           = 4.D-3,
(PID.TID 0000.0001)   16   GM_Sd              = 1.D-3,
(PID.TID 0000.0001)   17  /
(PID.TID 0000.0001)   18
(PID.TID 0000.0001) // =======================================================
(PID.TID 0000.0001) // Parameter file "data.gmredi"
(PID.TID 0000.0001) // =======================================================
(PID.TID 0000.0001) ># GM+Redi package parameters:
(PID.TID 0000.0001) >#     GM_Small_Number  :: epsilon used in computing the slope
(PID.TID 0000.0001) >#     GM_slopeSqCutoff :: slope^2 cut-off value
(PID.TID 0000.0001) >
(PID.TID 0000.0001) >#-from MOM :
(PID.TID 0000.0001) ># GM_background_K:      G & Mc.W  diffusion coefficient
(PID.TID 0000.0001) ># GM_maxSlope    :      max slope of isopycnals
(PID.TID 0000.0001) ># GM_Scrit       :      transition for scaling diffusion coefficient
(PID.TID 0000.0001) ># GM_Sd          :      half width scaling for diffusion coefficient
(PID.TID 0000.0001) ># GM_taper_scheme:      slope clipping or one of the tapering schemes
(PID.TID 0000.0001) ># GM_Kmin_horiz  :      horizontal diffusion minimum value
(PID.TID 0000.0001) >
(PID.TID 0000.0001) >#-Option parameters (needs to "define" options in GMREDI_OPTIONS.h")
(PID.TID 0000.0001) ># GM_isopycK     :      isopycnal diffusion coefficient
(PID.TID 0000.0001) >(default=GM_background_K)
(PID.TID 0000.0001) ># GM_AdvForm     :      turn on GM Advective form       (default=Skew flux
(PID.TID 0000.0001) >form)
(PID.TID 0000.0001) >
(PID.TID 0000.0001) > &GM_PARM01
(PID.TID 0000.0001) >  GM_Small_Number    = 1.D-20,
(PID.TID 0000.0001) >  GM_slopeSqCutoff   = 1.D+08,
(PID.TID 0000.0001) >  GM_AdvForm         = .FALSE.,
(PID.TID 0000.0001) >  GM_isopycK         = 1.D+3,
(PID.TID 0000.0001) >  GM_background_K    = 1.D+3,
(PID.TID 0000.0001) >  GM_maxSlope        = 1.D-2,
(PID.TID 0000.0001) >  GM_taper_scheme    = 'dm95',
(PID.TID 0000.0001) >  GM_Kmin_horiz      = 50.,
(PID.TID 0000.0001) >  GM_Scrit           = 4.D-3,
(PID.TID 0000.0001) >  GM_Sd              = 1.D-3,
(PID.TID 0000.0001) >#
(PID.TID 0000.0001) >###  GM_Visbeck_alpha   = 1.5D-2,
(PID.TID 0000.0001) >###  GM_Visbeck_alpha   = 0.D0,
(PID.TID 0000.0001) >###  GM_Visbeck_length  = 2.D+5,
(PID.TID 0000.0001) >###  GM_Visbeck_depth   = 1.D+3,
(PID.TID 0000.0001) >###  GM_Visbeck_maxval_K= 2.5D+3,
(PID.TID 0000.0001) > /
(PID.TID 0000.0001) >
(PID.TID 0000.0001) 
(PID.TID 0000.0001)  GM_READPARMS: finished reading data.gmredi
(PID.TID 0000.0001)  PTRACERS_READPARMS: opening data.ptracers
(PID.TID 0000.0001)  OPEN_COPY_DATA_FILE: opening file data.ptracers
(PID.TID 0000.0001) // =======================================================
(PID.TID 0000.0001) // Removing comments from "data.ptracers"
(PID.TID 0000.0001) // =======================================================
(PID.TID 0000.0001)    1  &PTRACERS_PARM01
(PID.TID 0000.0001)    2  PTRACERS_numInUse=81,
(PID.TID 0000.0001)    3  PTRACERS_Iter0= 0,
(PID.TID 0000.0001)    4  PTRACERS_advScheme=81*33,
(PID.TID 0000.0001)    5  PTRACERS_diffKh=81*0.E3,
(PID.TID 0000.0001)    6  PTRACERS_diffKr=81*1.E-5,
(PID.TID 0000.0001)    7  PTRACERS_useGMRedi=81*.TRUE.,
(PID.TID 0000.0001)    8  PTRACERS_useKPP=81*.TRUE.,
(PID.TID 0000.0001)    9  PTRACERS_names(1)= 'DIC',
(PID.TID 0000.0001)   10  PTRACERS_names(2)= 'NH4',
(PID.TID 0000.0001)   11  PTRACERS_names(3)= 'NO2',
(PID.TID 0000.0001)   12  PTRACERS_names(4)= 'NO3',
(PID.TID 0000.0001)   13  PTRACERS_names(5)= 'PO4',
(PID.TID 0000.0001)   14  PTRACERS_names(6)= 'SiO2',
(PID.TID 0000.0001)   15  PTRACERS_names(7)= 'FeT',
(PID.TID 0000.0001)   16  PTRACERS_names(8)= 'DOC',
(PID.TID 0000.0001)   17  PTRACERS_names(9)= 'DON',
(PID.TID 0000.0001)   18  PTRACERS_names(10)= 'DOP',
(PID.TID 0000.0001)   19  PTRACERS_names(11)= 'DOFe',
(PID.TID 0000.0001)   20  PTRACERS_names(12)= 'POC',
(PID.TID 0000.0001)   21  PTRACERS_names(13)= 'PON',
(PID.TID 0000.0001)   22  PTRACERS_names(14)= 'POP',
(PID.TID 0000.0001)   23  PTRACERS_names(15)= 'POSi',
(PID.TID 0000.0001)   24  PTRACERS_names(16)= 'POFe',
(PID.TID 0000.0001)   25  PTRACERS_names(17)= 'PIC',
(PID.TID 0000.0001)   26  PTRACERS_names(18)= 'ALK',
(PID.TID 0000.0001)   27  PTRACERS_names(19)= 'O2',
(PID.TID 0000.0001)   28  PTRACERS_names(20)= 'c01',
(PID.TID 0000.0001)   29  PTRACERS_names(21)= 'c02',
(PID.TID 0000.0001)   30  PTRACERS_names(22)= 'c03',
(PID.TID 0000.0001)   31  PTRACERS_names(23)= 'c04',
(PID.TID 0000.0001)   32  PTRACERS_names(24)= 'c05',
(PID.TID 0000.0001)   33  PTRACERS_names(25)= 'c06',
(PID.TID 0000.0001)   34  PTRACERS_names(26)= 'c07',
(PID.TID 0000.0001)   35  PTRACERS_names(27)= 'c08',
(PID.TID 0000.0001)   36  PTRACERS_names(28)= 'c09',
(PID.TID 0000.0001)   37  PTRACERS_names(29)= 'c10',
(PID.TID 0000.0001)   38  PTRACERS_names(30)= 'c11',
(PID.TID 0000.0001)   39  PTRACERS_names(31)= 'c12',
(PID.TID 0000.0001)   40  PTRACERS_names(32)= 'c13',
(PID.TID 0000.0001)   41  PTRACERS_names(33)= 'c14',
(PID.TID 0000.0001)   42  PTRACERS_names(34)= 'c15',
(PID.TID 0000.0001)   43  PTRACERS_names(35)= 'c16',
(PID.TID 0000.0001)   44  PTRACERS_names(36)= 'c17',
(PID.TID 0000.0001)   45  PTRACERS_names(37)= 'c18',
(PID.TID 0000.0001)   46  PTRACERS_names(38)= 'c19',
(PID.TID 0000.0001)   47  PTRACERS_names(39)= 'c20',
(PID.TID 0000.0001)   48  PTRACERS_names(40)= 'c21',
(PID.TID 0000.0001)   49  PTRACERS_names(41)= 'c22',
(PID.TID 0000.0001)   50  PTRACERS_names(42)= 'c23',
(PID.TID 0000.0001)   51  PTRACERS_names(43)= 'c24',
(PID.TID 0000.0001)   52  PTRACERS_names(44)= 'c25',
(PID.TID 0000.0001)   53  PTRACERS_names(45)= 'c26',
(PID.TID 0000.0001)   54  PTRACERS_names(46)= 'c27',
(PID.TID 0000.0001)   55  PTRACERS_names(47)= 'c28',
(PID.TID 0000.0001)   56  PTRACERS_names(48)= 'c29',
(PID.TID 0000.0001)   57  PTRACERS_names(49)= 'c30',
(PID.TID 0000.0001)   58  PTRACERS_names(50)= 'c31',
(PID.TID 0000.0001)   59  PTRACERS_names(51)= 'c32',
(PID.TID 0000.0001)   60  PTRACERS_names(52)= 'c33',
(PID.TID 0000.0001)   61  PTRACERS_names(53)= 'c34',
(PID.TID 0000.0001)   62  PTRACERS_names(54)= 'c35',
(PID.TID 0000.0001)   63  PTRACERS_names(55)= 'c36',
(PID.TID 0000.0001)   64  PTRACERS_names(56)= 'c37',
(PID.TID 0000.0001)   65  PTRACERS_names(57)= 'c38',
(PID.TID 0000.0001)   66  PTRACERS_names(58)= 'Chl01',
(PID.TID 0000.0001)   67  PTRACERS_names(59)= 'Chl02',
(PID.TID 0000.0001)   68  PTRACERS_names(60)= 'Chl03',
(PID.TID 0000.0001)   69  PTRACERS_names(61)= 'Chl04',
(PID.TID 0000.0001)   70  PTRACERS_names(62)= 'Chl05',
(PID.TID 0000.0001)   71  PTRACERS_names(63)= 'Chl06',
(PID.TID 0000.0001)   72  PTRACERS_names(64)= 'Chl07',
(PID.TID 0000.0001)   73  PTRACERS_names(65)= 'Chl08',
(PID.TID 0000.0001)   74  PTRACERS_names(66)= 'Chl09',
(PID.TID 0000.0001)   75  PTRACERS_names(67)= 'Chl10',
(PID.TID 0000.0001)   76  PTRACERS_names(68)= 'Chl11',
(PID.TID 0000.0001)   77  PTRACERS_names(69)= 'Chl12',
(PID.TID 0000.0001)   78  PTRACERS_names(70)= 'Chl13',
(PID.TID 0000.0001)   79  PTRACERS_names(71)= 'Chl14',
(PID.TID 0000.0001)   80  PTRACERS_names(72)= 'Chl15',
(PID.TID 0000.0001)   81  PTRACERS_names(73)= 'Chl16',
(PID.TID 0000.0001)   82  PTRACERS_names(74)= 'Chl17',
(PID.TID 0000.0001)   83  PTRACERS_names(75)= 'Chl18',
(PID.TID 0000.0001)   84  PTRACERS_names(76)= 'Chl19',
(PID.TID 0000.0001)   85  PTRACERS_names(77)= 'Chl20',
(PID.TID 0000.0001)   86  PTRACERS_names(78)= 'Chl21',
(PID.TID 0000.0001)   87  PTRACERS_names(79)= 'Chl22',
(PID.TID 0000.0001)   88  PTRACERS_names(80)= 'Chl23',
(PID.TID 0000.0001)   89  PTRACERS_names(81)= 'Chl24',
(PID.TID 0000.0001)   90  PTRACERS_units(1)='mmol C/m^3',
(PID.TID 0000.0001)   91  PTRACERS_units(2)='mmol N/m^3',
(PID.TID 0000.0001)   92  PTRACERS_units(3)='mmol N/m^3',
(PID.TID 0000.0001)   93  PTRACERS_units(4)='mmol N/m^3',
(PID.TID 0000.0001)   94  PTRACERS_units(5)='mmol P/m^3',
(PID.TID 0000.0001)   95  PTRACERS_units(6)='mmol Si/m^3',
(PID.TID 0000.0001)   96  PTRACERS_units(7)='mmol Fe/m^3',
(PID.TID 0000.0001)   97  PTRACERS_units(8)='mmol C/m^3',
(PID.TID 0000.0001)   98  PTRACERS_units(9)='mmol N/m^3',
(PID.TID 0000.0001)   99  PTRACERS_units(10)='mmol P/m^3',
(PID.TID 0000.0001)  100  PTRACERS_units(11)='mmol Fe/m^3',
(PID.TID 0000.0001)  101  PTRACERS_units(12)='mmol C/m^3',
(PID.TID 0000.0001)  102  PTRACERS_units(13)='mmol N/m^3',
(PID.TID 0000.0001)  103  PTRACERS_units(14)='mmol P/m^3',
(PID.TID 0000.0001)  104  PTRACERS_units(15)='mmol Si/m^3',
(PID.TID 0000.0001)  105  PTRACERS_units(16)='mmol Fe/m^3',
(PID.TID 0000.0001)  106  PTRACERS_units(17)='mmol C/m^3',
(PID.TID 0000.0001)  107  PTRACERS_units(18)='mmol eq/m^3',
(PID.TID 0000.0001)  108  PTRACERS_units(19)='mmol O/m^3',
(PID.TID 0000.0001)  109  PTRACERS_units(20:57)=38*'mmol C/m^3',
(PID.TID 0000.0001)  110  PTRACERS_units(58:81)=24*'mg Chl a/m^3',
(PID.TID 0000.0001)  111  PTRACERS_initialFile(1)='../../../input/eccov3_R8/glodap_tco2_ann-3d.bin',
(PID.TID 0000.0001)  112  PTRACERS_initialFile(2)='../../../input/DARWIN_ECCO_run17_R8/nh4_y2000.data',
(PID.TID 0000.0001)  113  PTRACERS_initialFile(3)='../../../input/DARWIN_ECCO_run17_R8/no2_y2000.data',
(PID.TID 0000.0001)  114  PTRACERS_initialFile(4)='../../../input/eccov3_R8/lev01_nitrate_ann-3d.bin',
(PID.TID 0000.0001)  115  PTRACERS_initialFile(5)='../../../input/eccov3_R8/lev01_phosphate_ann-3d.bin',
(PID.TID 0000.0001)  116  PTRACERS_initialFile(6)='../../../input/eccov3_R8/lev01_silicate_ann-3d.bin',
(PID.TID 0000.0001)  117  PTRACERS_initialFile(7)='../../../input/DARWIN_ECCO_run17_R8/fet_y2000.data',
(PID.TID 0000.0001)  118  PTRACERS_initialFile(8)='../../../input/DARWIN_ECCO_run17_R8/doc_y2000.data',
(PID.TID 0000.0001)  119  PTRACERS_initialFile(9)='../../../input/DARWIN_ECCO_run17_R8/don_y2000.data',
(PID.TID 0000.0001)  120  PTRACERS_initialFile(10)='../../../input/DARWIN_ECCO_run17_R8/dop_y2000.data',
(PID.TID 0000.0001)  121  PTRACERS_initialFile(11)='../../../input/DARWIN_ECCO_run17_R8/dofe_y2000.data',
(PID.TID 0000.0001)  122  PTRACERS_initialFile(12)='../../../input/DARWIN_ECCO_run17_R8/poc_y2000.data',
(PID.TID 0000.0001)  123  PTRACERS_initialFile(13)='../../../input/DARWIN_ECCO_run17_R8/pon_y2000.data',
(PID.TID 0000.0001)  124  PTRACERS_initialFile(14)='../../../input/DARWIN_ECCO_run17_R8/pop_y2000.data',
(PID.TID 0000.0001)  125  PTRACERS_initialFile(15)='../../../input/DARWIN_ECCO_run17_R8/posi_y2000.data',
(PID.TID 0000.0001)  126  PTRACERS_initialFile(16)='../../../input/DARWIN_ECCO_run17_R8/pofe_y2000.data',
(PID.TID 0000.0001)  127  PTRACERS_initialFile(17)='../../../input/DARWIN_ECCO_run17_R8/pic_y2000.data',
(PID.TID 0000.0001)  128  PTRACERS_initialFile(18)='../../../input/eccov3_R8/glodap_alk_ann-3d.bin',
(PID.TID 0000.0001)  129  PTRACERS_initialFile(19)='../../../input/eccov3_R8/lev01_oxygen_micromolar_ann-3d.bin',
(PID.TID 0000.0001)  130  PTRACERS_initialFile(20:57)=38*'../../../input/eccov3_R8/phy78_x120_lev01.bin',
(PID.TID 0000.0001)  131  PTRACERS_initialFile(58:81)=24*' ',
(PID.TID 0000.0001)  132  /
(PID.TID 0000.0001) // =======================================================
(PID.TID 0000.0001) // Parameter file "data.ptracers"
(PID.TID 0000.0001) // =======================================================
(PID.TID 0000.0001) > &PTRACERS_PARM01
(PID.TID 0000.0001) > PTRACERS_numInUse=81,
(PID.TID 0000.0001) > PTRACERS_Iter0= 0,
(PID.TID 0000.0001) >#
(PID.TID 0000.0001) > PTRACERS_advScheme=81*33,
(PID.TID 0000.0001) > PTRACERS_diffKh=81*0.E3,
(PID.TID 0000.0001) > PTRACERS_diffKr=81*1.E-5,
(PID.TID 0000.0001) > PTRACERS_useGMRedi=81*.TRUE.,
(PID.TID 0000.0001) > PTRACERS_useKPP=81*.TRUE.,
(PID.TID 0000.0001) >#
(PID.TID 0000.0001) > PTRACERS_names(1)= 'DIC',
(PID.TID 0000.0001) > PTRACERS_names(2)= 'NH4',
(PID.TID 0000.0001) > PTRACERS_names(3)= 'NO2',
(PID.TID 0000.0001) > PTRACERS_names(4)= 'NO3',
(PID.TID 0000.0001) > PTRACERS_names(5)= 'PO4',
(PID.TID 0000.0001) > PTRACERS_names(6)= 'SiO2',
(PID.TID 0000.0001) > PTRACERS_names(7)= 'FeT',
(PID.TID 0000.0001) > PTRACERS_names(8)= 'DOC',
(PID.TID 0000.0001) > PTRACERS_names(9)= 'DON',
(PID.TID 0000.0001) > PTRACERS_names(10)= 'DOP',
(PID.TID 0000.0001) > PTRACERS_names(11)= 'DOFe',
(PID.TID 0000.0001) > PTRACERS_names(12)= 'POC',
(PID.TID 0000.0001) > PTRACERS_names(13)= 'PON',
(PID.TID 0000.0001) > PTRACERS_names(14)= 'POP',
(PID.TID 0000.0001) > PTRACERS_names(15)= 'POSi',
(PID.TID 0000.0001) > PTRACERS_names(16)= 'POFe',
(PID.TID 0000.0001) > PTRACERS_names(17)= 'PIC',
(PID.TID 0000.0001) > PTRACERS_names(18)= 'ALK',
(PID.TID 0000.0001) > PTRACERS_names(19)= 'O2',
(PID.TID 0000.0001) > PTRACERS_names(20)= 'c01',
(PID.TID 0000.0001) > PTRACERS_names(21)= 'c02',
(PID.TID 0000.0001) > PTRACERS_names(22)= 'c03',
(PID.TID 0000.0001) > PTRACERS_names(23)= 'c04',
(PID.TID 0000.0001) > PTRACERS_names(24)= 'c05',
(PID.TID 0000.0001) > PTRACERS_names(25)= 'c06',
(PID.TID 0000.0001) > PTRACERS_names(26)= 'c07',
(PID.TID 0000.0001) > PTRACERS_names(27)= 'c08',
(PID.TID 0000.0001) > PTRACERS_names(28)= 'c09',
(PID.TID 0000.0001) > PTRACERS_names(29)= 'c10',
(PID.TID 0000.0001) > PTRACERS_names(30)= 'c11',
(PID.TID 0000.0001) > PTRACERS_names(31)= 'c12',
(PID.TID 0000.0001) > PTRACERS_names(32)= 'c13',
(PID.TID 0000.0001) > PTRACERS_names(33)= 'c14',
(PID.TID 0000.0001) > PTRACERS_names(34)= 'c15',
(PID.TID 0000.0001) > PTRACERS_names(35)= 'c16',
(PID.TID 0000.0001) > PTRACERS_names(36)= 'c17',
(PID.TID 0000.0001) > PTRACERS_names(37)= 'c18',
(PID.TID 0000.0001) > PTRACERS_names(38)= 'c19',
(PID.TID 0000.0001) > PTRACERS_names(39)= 'c20',
(PID.TID 0000.0001) > PTRACERS_names(40)= 'c21',
(PID.TID 0000.0001) > PTRACERS_names(41)= 'c22',
(PID.TID 0000.0001) > PTRACERS_names(42)= 'c23',
(PID.TID 0000.0001) > PTRACERS_names(43)= 'c24',
(PID.TID 0000.0001) > PTRACERS_names(44)= 'c25',
(PID.TID 0000.0001) > PTRACERS_names(45)= 'c26',
(PID.TID 0000.0001) > PTRACERS_names(46)= 'c27',
(PID.TID 0000.0001) > PTRACERS_names(47)= 'c28',
(PID.TID 0000.0001) > PTRACERS_names(48)= 'c29',
(PID.TID 0000.0001) > PTRACERS_names(49)= 'c30',
(PID.TID 0000.0001) > PTRACERS_names(50)= 'c31',
(PID.TID 0000.0001) > PTRACERS_names(51)= 'c32',
(PID.TID 0000.0001) > PTRACERS_names(52)= 'c33',
(PID.TID 0000.0001) > PTRACERS_names(53)= 'c34',
(PID.TID 0000.0001) > PTRACERS_names(54)= 'c35',
(PID.TID 0000.0001) > PTRACERS_names(55)= 'c36',
(PID.TID 0000.0001) > PTRACERS_names(56)= 'c37',
(PID.TID 0000.0001) > PTRACERS_names(57)= 'c38',
(PID.TID 0000.0001) > PTRACERS_names(58)= 'Chl01',
(PID.TID 0000.0001) > PTRACERS_names(59)= 'Chl02',
(PID.TID 0000.0001) > PTRACERS_names(60)= 'Chl03',
(PID.TID 0000.0001) > PTRACERS_names(61)= 'Chl04',
(PID.TID 0000.0001) > PTRACERS_names(62)= 'Chl05',
(PID.TID 0000.0001) > PTRACERS_names(63)= 'Chl06',
(PID.TID 0000.0001) > PTRACERS_names(64)= 'Chl07',
(PID.TID 0000.0001) > PTRACERS_names(65)= 'Chl08',
(PID.TID 0000.0001) > PTRACERS_names(66)= 'Chl09',
(PID.TID 0000.0001) > PTRACERS_names(67)= 'Chl10',
(PID.TID 0000.0001) > PTRACERS_names(68)= 'Chl11',
(PID.TID 0000.0001) > PTRACERS_names(69)= 'Chl12',
(PID.TID 0000.0001) > PTRACERS_names(70)= 'Chl13',
(PID.TID 0000.0001) > PTRACERS_names(71)= 'Chl14',
(PID.TID 0000.0001) > PTRACERS_names(72)= 'Chl15',
(PID.TID 0000.0001) > PTRACERS_names(73)= 'Chl16',
(PID.TID 0000.0001) > PTRACERS_names(74)= 'Chl17',
(PID.TID 0000.0001) > PTRACERS_names(75)= 'Chl18',
(PID.TID 0000.0001) > PTRACERS_names(76)= 'Chl19',
(PID.TID 0000.0001) > PTRACERS_names(77)= 'Chl20',
(PID.TID 0000.0001) > PTRACERS_names(78)= 'Chl21',
(PID.TID 0000.0001) > PTRACERS_names(79)= 'Chl22',
(PID.TID 0000.0001) > PTRACERS_names(80)= 'Chl23',
(PID.TID 0000.0001) > PTRACERS_names(81)= 'Chl24',
(PID.TID 0000.0001) >#
(PID.TID 0000.0001) > PTRACERS_units(1)='mmol C/m^3',
(PID.TID 0000.0001) > PTRACERS_units(2)='mmol N/m^3',
(PID.TID 0000.0001) > PTRACERS_units(3)='mmol N/m^3',
(PID.TID 0000.0001) > PTRACERS_units(4)='mmol N/m^3',
(PID.TID 0000.0001) > PTRACERS_units(5)='mmol P/m^3',
(PID.TID 0000.0001) > PTRACERS_units(6)='mmol Si/m^3',
(PID.TID 0000.0001) > PTRACERS_units(7)='mmol Fe/m^3',
(PID.TID 0000.0001) > PTRACERS_units(8)='mmol C/m^3',
(PID.TID 0000.0001) > PTRACERS_units(9)='mmol N/m^3',
(PID.TID 0000.0001) > PTRACERS_units(10)='mmol P/m^3',
(PID.TID 0000.0001) > PTRACERS_units(11)='mmol Fe/m^3',
(PID.TID 0000.0001) > PTRACERS_units(12)='mmol C/m^3',
(PID.TID 0000.0001) > PTRACERS_units(13)='mmol N/m^3',
(PID.TID 0000.0001) > PTRACERS_units(14)='mmol P/m^3',
(PID.TID 0000.0001) > PTRACERS_units(15)='mmol Si/m^3',
(PID.TID 0000.0001) > PTRACERS_units(16)='mmol Fe/m^3',
(PID.TID 0000.0001) > PTRACERS_units(17)='mmol C/m^3',
(PID.TID 0000.0001) > PTRACERS_units(18)='mmol eq/m^3',
(PID.TID 0000.0001) > PTRACERS_units(19)='mmol O/m^3',
(PID.TID 0000.0001) > PTRACERS_units(20:57)=38*'mmol C/m^3',
(PID.TID 0000.0001) > PTRACERS_units(58:81)=24*'mg Chl a/m^3',
(PID.TID 0000.0001) >#
(PID.TID 0000.0001) > PTRACERS_initialFile(1)='../../../input/eccov3_R8/glodap_tco2_ann-3d.bin',
(PID.TID 0000.0001) > PTRACERS_initialFile(2)='../../../input/DARWIN_ECCO_run17_R8/nh4_y2000.data',
(PID.TID 0000.0001) > PTRACERS_initialFile(3)='../../../input/DARWIN_ECCO_run17_R8/no2_y2000.data',
(PID.TID 0000.0001) > PTRACERS_initialFile(4)='../../../input/eccov3_R8/lev01_nitrate_ann-3d.bin',
(PID.TID 0000.0001) > PTRACERS_initialFile(5)='../../../input/eccov3_R8/lev01_phosphate_ann-3d.bin',
(PID.TID 0000.0001) > PTRACERS_initialFile(6)='../../../input/eccov3_R8/lev01_silicate_ann-3d.bin',
(PID.TID 0000.0001) > PTRACERS_initialFile(7)='../../../input/DARWIN_ECCO_run17_R8/fet_y2000.data',
(PID.TID 0000.0001) > PTRACERS_initialFile(8)='../../../input/DARWIN_ECCO_run17_R8/doc_y2000.data',
(PID.TID 0000.0001) > PTRACERS_initialFile(9)='../../../input/DARWIN_ECCO_run17_R8/don_y2000.data',
(PID.TID 0000.0001) > PTRACERS_initialFile(10)='../../../input/DARWIN_ECCO_run17_R8/dop_y2000.data',
(PID.TID 0000.0001) > PTRACERS_initialFile(11)='../../../input/DARWIN_ECCO_run17_R8/dofe_y2000.data',
(PID.TID 0000.0001) > PTRACERS_initialFile(12)='../../../input/DARWIN_ECCO_run17_R8/poc_y2000.data',
(PID.TID 0000.0001) > PTRACERS_initialFile(13)='../../../input/DARWIN_ECCO_run17_R8/pon_y2000.data',
(PID.TID 0000.0001) > PTRACERS_initialFile(14)='../../../input/DARWIN_ECCO_run17_R8/pop_y2000.data',
(PID.TID 0000.0001) > PTRACERS_initialFile(15)='../../../input/DARWIN_ECCO_run17_R8/posi_y2000.data',
(PID.TID 0000.0001) > PTRACERS_initialFile(16)='../../../input/DARWIN_ECCO_run17_R8/pofe_y2000.data',
(PID.TID 0000.0001) > PTRACERS_initialFile(17)='../../../input/DARWIN_ECCO_run17_R8/pic_y2000.data',
(PID.TID 0000.0001) > PTRACERS_initialFile(18)='../../../input/eccov3_R8/glodap_alk_ann-3d.bin',
(PID.TID 0000.0001) > PTRACERS_initialFile(19)='../../../input/eccov3_R8/lev01_oxygen_micromolar_ann-3d.bin',
(PID.TID 0000.0001) > PTRACERS_initialFile(20:57)=38*'../../../input/eccov3_R8/phy78_x120_lev01.bin',
(PID.TID 0000.0001) > PTRACERS_initialFile(58:81)=24*' ',
(PID.TID 0000.0001) > /
(PID.TID 0000.0001) 
(PID.TID 0000.0001)  PTRACERS_READPARMS: finished reading data.ptracers
(PID.TID 0000.0001)  GCHEM_READPARMS: opening data.gchem
(PID.TID 0000.0001)  OPEN_COPY_DATA_FILE: opening file data.gchem
(PID.TID 0000.0001) // =======================================================
(PID.TID 0000.0001) // Removing comments from "data.gchem"
(PID.TID 0000.0001) // =======================================================
(PID.TID 0000.0001)    1  &GCHEM_PARM01
(PID.TID 0000.0001)    2   useGUD=.TRUE.,
(PID.TID 0000.0001)    3   nsubtime=1,
(PID.TID 0000.0001)    4  /
(PID.TID 0000.0001) // =======================================================
(PID.TID 0000.0001) // Parameter file "data.gchem"
(PID.TID 0000.0001) // =======================================================
(PID.TID 0000.0001) > &GCHEM_PARM01
(PID.TID 0000.0001) >  useGUD=.TRUE.,
(PID.TID 0000.0001) >  nsubtime=1,
(PID.TID 0000.0001) > /
(PID.TID 0000.0001) 
(PID.TID 0000.0001)  GCHEM_READPARMS: finished reading data.gchem
(PID.TID 0000.0001)  GUD_READPARMS: opening data.gud
(PID.TID 0000.0001)  OPEN_COPY_DATA_FILE: opening file data.gud
(PID.TID 0000.0001) // =======================================================
(PID.TID 0000.0001) // Removing comments from "data.gud"
(PID.TID 0000.0001) // =======================================================
(PID.TID 0000.0001)    1  &GUD_FORCING_PARAMS
(PID.TID 0000.0001)    2  gud_chlInitBalanced= T,
(PID.TID 0000.0001)    3  /
(PID.TID 0000.0001)    4  &GUD_EXF_PARAMS
(PID.TID 0000.0001)    5  ironFile='/home/stephdut/Input/input_ecco/mahowald2009_solubile_current_smooth_oce_mth-2d.bin',
(PID.TID 0000.0001)    6  ironPeriod= -12.,
(PID.TID 0000.0001)    7  gud_inscal_iron= 1000.,
(PID.TID 0000.0001)    8  PARFile='/home/stephdut/Input/input_ecco/ecco_oasim_total_below_oneband_einm2d.bin',
(PID.TID 0000.0001)    9  PARPeriod= -12.,
(PID.TID 0000.0001)   10  gud_inscal_PAR= 11.574074074074,
(PID.TID 0000.0001)   11  windFile='../../../input/eccov3/tren_speed_mth-2d.bin',
(PID.TID 0000.0001)   12  windPeriod= -12.,
(PID.TID 0000.0001)   13  icefile = '../../../input/eccov3/SIarea.bin',
(PID.TID 0000.0001)   14  icestartdate1 = 19990101,
(PID.TID 0000.0001)   15  icestartdate2 = 120000,
(PID.TID 0000.0001)   16  iceperiod     = 86400.0,
(PID.TID 0000.0001)   17  /
(PID.TID 0000.0001)   18  &GUD_PARAMS
(PID.TID 0000.0001)   19  idebug=271,
(PID.TID 0000.0001)   20  jdebug=63,
(PID.TID 0000.0001)   21  gud_allometric= T,
(PID.TID 0000.0001)   22  gud_sort_biovol= T,
(PID.TID 0000.0001)   23  gud_seed= 56,
(PID.TID 0000.0001)   24  gud_read_phos= F,
(PID.TID 0000.0001)   25  tempCoeffArr= 0.8,
(PID.TID 0000.0001)   26  PARmin= 0.1,
(PID.TID 0000.0001)   27  alpfe= 1.0,
(PID.TID 0000.0001)   28  freefemax = .1E-3,
(PID.TID 0000.0001)   29  depthfesed= 7000.,
(PID.TID 0000.0001)   30  scav_rat= 1.73611111111111111111E-7,
(PID.TID 0000.0001)   31  kdoc=  3.8580246913580247E-7,  ! 1/30day
(PID.TID 0000.0001)   32  kdop=  3.8580246913580247E-7,  ! 1/30day
(PID.TID 0000.0001)   33  kdon=  3.8580246913580247E-7,  ! 1/30day
(PID.TID 0000.0001)   34  kdofe= 3.8580246913580247E-7,  ! 1/30day
(PID.TID 0000.0001)   35  kPOC=  3.8580246913580247E-7,  ! 1/30day
(PID.TID 0000.0001)   36  kPOP=  3.8580246913580247E-7,  ! 1/30day
(PID.TID 0000.0001)   37  kPON=  3.8580246913580247E-7,  ! 1/30day
(PID.TID 0000.0001)   38  kPOFe= 3.8580246913580247E-7,  ! 1/30day
(PID.TID 0000.0001)   39  kPOSi= 7.7160493827160493E-8,  ! 1/150day
(PID.TID 0000.0001)   40  phygrazmin= 120E-10,
(PID.TID 0000.0001)   41  gud_atmos_pCO2= 278E-6,
(PID.TID 0000.0001)   42  /
(PID.TID 0000.0001)   43  &GUD_RADTRANS_PARAMS
(PID.TID 0000.0001)   44  /
(PID.TID 0000.0001)   45  &GUD_RANDOM_PARAMS
(PID.TID 0000.0001)   46  /
(PID.TID 0000.0001)   47  &GUD_ALLOMETRIC_PARAMS
(PID.TID 0000.0001)   48  grpsz(:)=       9, 0, 2, 1, 5, 6, 1,14,
(PID.TID 0000.0001)   49  grp_photo(:)=   1, 1, 1, 1, 1, 1, 1, 0,
(PID.TID 0000.0001)   50  grp_pred(:)=    0, 0, 0, 0, 0, 0, 0, 1,
(PID.TID 0000.0001)   51  grp_prey(:)=    1, 1, 1, 1, 1, 1, 1, 0,
(PID.TID 0000.0001)   52  grp_DIACOC(:)=  1, 0, 0, 0, 0, 2, 0, 0,
(PID.TID 0000.0001)   53  grp_DIAZO(:)=   0, 0, 0, 0, 1, 0, 0, 0,
(PID.TID 0000.0001)   54  grp_NSOURCE(:)= 3, 3, 3, 3, 0, 3, 3, 0,
(PID.TID 0000.0001)   55
(PID.TID 0000.0001)   56  grp_mqyield(:)= 7*5E-5,
(PID.TID 0000.0001)   57  grp_chl2cmax(:)= 7*.3,
(PID.TID 0000.0001)   58  grp_acclimtimescl(:)= 7*5.7870370370370370E-6,
(PID.TID 0000.0001)   59  grp_noMortTempFunc(:)=  8*0,
(PID.TID 0000.0001)   60  grp_noMort2TempFunc(:)= 8*0,
(PID.TID 0000.0001)   61  biovol0(1)=  41.54320512418612,   ! D
(PID.TID 0000.0001)   62  biovol0(2)=  0.,
(PID.TID 0000.0001)   63  biovol0(3)=  1.2008810730146715,  ! s
(PID.TID 0000.0001)   64  biovol0(4)=  0.11310973893337056, ! P
(PID.TID 0000.0001)   65  biovol0(5)=  12.749700999437144,  ! T
(PID.TID 0000.0001)   66  biovol0(6)=  12.749700999437144,  ! C
(PID.TID 0000.0001)   67  biovol0(7)=  0.3685530418524794,  ! S
(PID.TID 0000.0001)   68  biovol0(8)=  1.2008810730146715,  ! Z
(PID.TID 0000.0001)   69  biovolfac(:)= 8*3.2583670100200877,
(PID.TID 0000.0001)   70  a_biosink(:)= 7*6.951416635391563E-7, 0.,  ! .05*dm**.85
(PID.TID 0000.0001)   71  b_biosink(:)= 7*.2833333333333333, 0.,
(PID.TID 0000.0001)   72  a_vmax_DIC(1)= 8.680555555555556E-5,   ! 7.5/day
(PID.TID 0000.0001)   73  a_vmax_DIC(2)= 2.3148148148148147E-5,  ! 2.0/day
(PID.TID 0000.0001)   74  a_vmax_DIC(3)= 6.944444444444444E-6,   ! 0.6/day
(PID.TID 0000.0001)   75  a_vmax_DIC(4)= 6.944444444444444E-6,   ! 0.6/day
(PID.TID 0000.0001)   76  a_vmax_DIC(5)= 1.0416666666666666E-5,  ! 0.9/day
(PID.TID 0000.0001)   77  a_vmax_DIC(6)= 3.472222222222222E-5,   ! 3.0/day
(PID.TID 0000.0001)   78  a_vmax_DIC(7)= 6.944444444444444E-6,   ! 0.6/day
(PID.TID 0000.0001)   79  b_vmax_DIC(:)= -0.15, -0.15, 0.07, 0.07, -0.15, -0.15, 0.07,
(PID.TID 0000.0001)   80  gud_effective_ksat= T,
(PID.TID 0000.0001)   81  grp_ExportFrac(:)= .4, .4, .1, .1, .4, .4, .1, .6,
(PID.TID 0000.0001)   82  grp_ExportFracGraz(1:7)= .8,
(PID.TID 0000.0001)   83  grp_R_ChlC(8)= 0.,
(PID.TID 0000.0001)   84  a_graz(8)= 2.3148148148148147e-05,  ! 2/day
(PID.TID 0000.0001)   85  b_graz(8)= -.16,
(PID.TID 0000.0001)   86  grp_mort(:)= 7*1.6534391534391533e-06, 2.3148148148148148e-07,  ! 1/7days, 1/50days
(PID.TID 0000.0001)   87  grp_mort2(:)= 7*0., 9.259259259259258e-07,  ! 16*.6/120/day
(PID.TID 0000.0001)   88  grp_tempcoeff2= 7*.0003,
(PID.TID 0000.0001)   89  grp_R_PC(:)= 8*0.008333333333333333,
(PID.TID 0000.0001)   90  grp_R_FeC(:)= 4*0.008333333333333333E-3, 0.03333333333333333E-3, 3*0.008333333333333333E-3,
(PID.TID 0000.0001)   91  grp_R_NC(:)= 4*0.13333333333333333, 0.3333333333333333, 3*0.13333333333333333,
(PID.TID 0000.0001)   92  grp_R_SiC(:)= 0.13333333333333333, 7*0.,
(PID.TID 0000.0001)   93  grp_R_PICPOC(:)= 5*0., .8, 2*0.,
(PID.TID 0000.0001)   94  a_kg(8)= 6.,
(PID.TID 0000.0001)   95  b_kg(8)= 0.,
(PID.TID 0000.0001)   96
(PID.TID 0000.0001)   97  grp_ass_eff(:)= 7*0.5,
(PID.TID 0000.0001)   98  /
(PID.TID 0000.0001) // =======================================================
(PID.TID 0000.0001) // Parameter file "data.gud"
(PID.TID 0000.0001) // =======================================================
(PID.TID 0000.0001) >########################
(PID.TID 0000.0001) > &GUD_FORCING_PARAMS
(PID.TID 0000.0001) > gud_chlInitBalanced= T,
(PID.TID 0000.0001) > /
(PID.TID 0000.0001) >########################
(PID.TID 0000.0001) > &GUD_EXF_PARAMS
(PID.TID 0000.0001) > ironFile='/home/stephdut/Input/input_ecco/mahowald2009_solubile_current_smooth_oce_mth-2d.bin',
(PID.TID 0000.0001) > ironPeriod= -12.,
(PID.TID 0000.0001) > gud_inscal_iron= 1000.,
(PID.TID 0000.0001) > PARFile='/home/stephdut/Input/input_ecco/ecco_oasim_total_below_oneband_einm2d.bin',
(PID.TID 0000.0001) > PARPeriod= -12.,
(PID.TID 0000.0001) > gud_inscal_PAR= 11.574074074074,
(PID.TID 0000.0001) > windFile='../../../input/eccov3/tren_speed_mth-2d.bin',
(PID.TID 0000.0001) > windPeriod= -12.,
(PID.TID 0000.0001) > icefile = '../../../input/eccov3/SIarea.bin',
(PID.TID 0000.0001) > icestartdate1 = 19990101,
(PID.TID 0000.0001) > icestartdate2 = 120000,
(PID.TID 0000.0001) > iceperiod     = 86400.0,
(PID.TID 0000.0001) > /
(PID.TID 0000.0001) >########################
(PID.TID 0000.0001) > &GUD_PARAMS
(PID.TID 0000.0001) > idebug=271,
(PID.TID 0000.0001) > jdebug=63,
(PID.TID 0000.0001) > gud_allometric= T,
(PID.TID 0000.0001) > gud_sort_biovol= T,
(PID.TID 0000.0001) > gud_seed= 56,
(PID.TID 0000.0001) > gud_read_phos= F,
(PID.TID 0000.0001) > tempCoeffArr= 0.8,
(PID.TID 0000.0001) > PARmin= 0.1,
(PID.TID 0000.0001) > alpfe= 1.0,
(PID.TID 0000.0001) > freefemax = .1E-3,
(PID.TID 0000.0001) > depthfesed= 7000.,
(PID.TID 0000.0001) > scav_rat= 1.73611111111111111111E-7,
(PID.TID 0000.0001) > kdoc=  3.8580246913580247E-7,  ! 1/30day
(PID.TID 0000.0001) > kdop=  3.8580246913580247E-7,  ! 1/30day
(PID.TID 0000.0001) > kdon=  3.8580246913580247E-7,  ! 1/30day
(PID.TID 0000.0001) > kdofe= 3.8580246913580247E-7,  ! 1/30day
(PID.TID 0000.0001) > kPOC=  3.8580246913580247E-7,  ! 1/30day
(PID.TID 0000.0001) > kPOP=  3.8580246913580247E-7,  ! 1/30day
(PID.TID 0000.0001) > kPON=  3.8580246913580247E-7,  ! 1/30day
(PID.TID 0000.0001) > kPOFe= 3.8580246913580247E-7,  ! 1/30day
(PID.TID 0000.0001) > kPOSi= 7.7160493827160493E-8,  ! 1/150day
(PID.TID 0000.0001) > phygrazmin= 120E-10,
(PID.TID 0000.0001) > gud_atmos_pCO2= 278E-6,
(PID.TID 0000.0001) > /
(PID.TID 0000.0001) >########################
(PID.TID 0000.0001) > &GUD_RADTRANS_PARAMS
(PID.TID 0000.0001) > /
(PID.TID 0000.0001) >########################
(PID.TID 0000.0001) > &GUD_RANDOM_PARAMS
(PID.TID 0000.0001) > /
(PID.TID 0000.0001) >########################
(PID.TID 0000.0001) > &GUD_ALLOMETRIC_PARAMS
(PID.TID 0000.0001) >#                1  2  3  4  5  6  7  8
(PID.TID 0000.0001) >#                D  l  s  P  T  C  S  Z
(PID.TID 0000.0001) > grpsz(:)=       9, 0, 2, 1, 5, 6, 1,14,
(PID.TID 0000.0001) > grp_photo(:)=   1, 1, 1, 1, 1, 1, 1, 0,
(PID.TID 0000.0001) > grp_pred(:)=    0, 0, 0, 0, 0, 0, 0, 1,
(PID.TID 0000.0001) > grp_prey(:)=    1, 1, 1, 1, 1, 1, 1, 0,
(PID.TID 0000.0001) > grp_DIACOC(:)=  1, 0, 0, 0, 0, 2, 0, 0,
(PID.TID 0000.0001) > grp_DIAZO(:)=   0, 0, 0, 0, 1, 0, 0, 0,
(PID.TID 0000.0001) > grp_NSOURCE(:)= 3, 3, 3, 3, 0, 3, 3, 0,
(PID.TID 0000.0001) >
(PID.TID 0000.0001) > grp_mqyield(:)= 7*5E-5,
(PID.TID 0000.0001) > grp_chl2cmax(:)= 7*.3,
(PID.TID 0000.0001) > grp_acclimtimescl(:)= 7*5.7870370370370370E-6,
(PID.TID 0000.0001) > grp_noMortTempFunc(:)=  8*0,
(PID.TID 0000.0001) > grp_noMort2TempFunc(:)= 8*0,
(PID.TID 0000.0001) > biovol0(1)=  41.54320512418612,   ! D
(PID.TID 0000.0001) > biovol0(2)=  0.,
(PID.TID 0000.0001) > biovol0(3)=  1.2008810730146715,  ! s
(PID.TID 0000.0001) > biovol0(4)=  0.11310973893337056, ! P
(PID.TID 0000.0001) > biovol0(5)=  12.749700999437144,  ! T
(PID.TID 0000.0001) > biovol0(6)=  12.749700999437144,  ! C
(PID.TID 0000.0001) > biovol0(7)=  0.3685530418524794,  ! S
(PID.TID 0000.0001) > biovol0(8)=  1.2008810730146715,  ! Z
(PID.TID 0000.0001) > biovolfac(:)= 8*3.2583670100200877,
(PID.TID 0000.0001) > a_biosink(:)= 7*6.951416635391563E-7, 0.,  ! .05*dm**.85
(PID.TID 0000.0001) > b_biosink(:)= 7*.2833333333333333, 0.,
(PID.TID 0000.0001) > a_vmax_DIC(1)= 8.680555555555556E-5,   ! 7.5/day
(PID.TID 0000.0001) > a_vmax_DIC(2)= 2.3148148148148147E-5,  ! 2.0/day
(PID.TID 0000.0001) > a_vmax_DIC(3)= 6.944444444444444E-6,   ! 0.6/day
(PID.TID 0000.0001) > a_vmax_DIC(4)= 6.944444444444444E-6,   ! 0.6/day
(PID.TID 0000.0001) > a_vmax_DIC(5)= 1.0416666666666666E-5,  ! 0.9/day
(PID.TID 0000.0001) > a_vmax_DIC(6)= 3.472222222222222E-5,   ! 3.0/day
(PID.TID 0000.0001) > a_vmax_DIC(7)= 6.944444444444444E-6,   ! 0.6/day
(PID.TID 0000.0001) > b_vmax_DIC(:)= -0.15, -0.15, 0.07, 0.07, -0.15, -0.15, 0.07,
(PID.TID 0000.0001) >#
(PID.TID 0000.0001) > gud_effective_ksat= T,
(PID.TID 0000.0001) ># a_vmax_NO3(:)= 7*5.902777777777778e-06,  ! 0.51/day
(PID.TID 0000.0001) ># a_qmax_n(:)=   7*0.25,
(PID.TID 0000.0001) ># a_qmin_n(:)=   7*0.07,
(PID.TID 0000.0001) ># a_kn_NO3(:)=   7*0.17,
(PID.TID 0000.0001) ># b_vmax_NO3(:)= 7*-0.27,
(PID.TID 0000.0001) ># b_qmax_n(:)=   7*-0.13,
(PID.TID 0000.0001) ># b_qmin_n(:)=   7*-0.17,
(PID.TID 0000.0001) ># b_kn_NO3(:)=   7*0.27,
(PID.TID 0000.0001) >#
(PID.TID 0000.0001) > grp_ExportFrac(:)= .4, .4, .1, .1, .4, .4, .1, .6,
(PID.TID 0000.0001) > grp_ExportFracGraz(1:7)= .8,
(PID.TID 0000.0001) > grp_R_ChlC(8)= 0.,
(PID.TID 0000.0001) > a_graz(8)= 2.3148148148148147e-05,  ! 2/day
(PID.TID 0000.0001) > b_graz(8)= -.16,
(PID.TID 0000.0001) >#
(PID.TID 0000.0001) > grp_mort(:)= 7*1.6534391534391533e-06, 2.3148148148148148e-07,  ! 1/7days, 1/50days
(PID.TID 0000.0001) > grp_mort2(:)= 7*0., 9.259259259259258e-07,  ! 16*.6/120/day
(PID.TID 0000.0001) > grp_tempcoeff2= 7*.0003,
(PID.TID 0000.0001) > grp_R_PC(:)= 8*0.008333333333333333,
(PID.TID 0000.0001) > grp_R_FeC(:)= 4*0.008333333333333333E-3, 0.03333333333333333E-3, 3*0.008333333333333333E-3,
(PID.TID 0000.0001) > grp_R_NC(:)= 4*0.13333333333333333, 0.3333333333333333, 3*0.13333333333333333,
(PID.TID 0000.0001) > grp_R_SiC(:)= 0.13333333333333333, 7*0.,
(PID.TID 0000.0001) > grp_R_PICPOC(:)= 5*0., .8, 2*0.,
(PID.TID 0000.0001) > a_kg(8)= 6.,
(PID.TID 0000.0001) > b_kg(8)= 0.,
(PID.TID 0000.0001) >
(PID.TID 0000.0001) > grp_ass_eff(:)= 7*0.5,
(PID.TID 0000.0001) > /
(PID.TID 0000.0001) 
(PID.TID 0000.0001)  ===================================
(PID.TID 0000.0001)  OFFLINE_READPARMS: opening data.off
(PID.TID 0000.0001)  OPEN_COPY_DATA_FILE: opening file data.off
(PID.TID 0000.0001) // =======================================================
(PID.TID 0000.0001) // Removing comments from "data.off"
(PID.TID 0000.0001) // =======================================================
(PID.TID 0000.0001)    1  &OFFLINE_PARM01
(PID.TID 0000.0001)    2   UvelFile= '/nobackup1/stephdut/ECCO_Iter3.73daily/DDuvel/DDuvel',
(PID.TID 0000.0001)    3   VvelFile= '/nobackup1/stephdut/ECCO_Iter3.73daily/DDvvel/DDvvel',
(PID.TID 0000.0001)    4   WvelFile= '/nobackup1/stephdut/ECCO_Iter3.73daily/DDwvel/DDwvel',
(PID.TID 0000.0001)    5   GMwxFile= '/nobackup1/stephdut/ECCO_Iter3.73daily/DGMkwx/DGMkwx',
(PID.TID 0000.0001)    6   GMwyFile= '/nobackup1/stephdut/ECCO_Iter3.73daily/DGMkwy/DGMkwy',
(PID.TID 0000.0001)    7   GMwzFile= '/nobackup1/stephdut/ECCO_Iter3.73daily/DGMkwz/DGMkwz',
(PID.TID 0000.0001)    8   SaltFile= '/nobackup1/stephdut/ECCO_Iter3.73daily/DDsalt/DDsalt',
(PID.TID 0000.0001)    9   ThetFile= '/nobackup1/stephdut/ECCO_Iter3.73daily/DDtheta/DDtheta',
(PID.TID 0000.0001)   10   SFluxFile='/nobackup1/stephdut/ECCO_Iter3.73daily/DFOSflux/DFOSflux',
(PID.TID 0000.0001)   11   KPP_DiffSFile='/nobackup1/stephdut/ECCO_Iter3.73daily/DKPPdiffs/DKPPdiffs',
(PID.TID 0000.0001)   12   KPP_ghatKFile='/nobackup1/stephdut/ECCO_Iter3.73daily/DKPPghatK/DKPPghatK',
(PID.TID 0000.0001)   13  &end
(PID.TID 0000.0001)   14
(PID.TID 0000.0001)   15  &OFFLINE_PARM02
(PID.TID 0000.0001)   16   offlineIter0=78912,
(PID.TID 0000.0001)   17   deltaToffline=3600.,
(PID.TID 0000.0001)   18   offlineForcingPeriod=86400.,
(PID.TID 0000.0001)   19   offlineForcingCycle=31104000.,
(PID.TID 0000.0001)   20   offlineLoadPrec=32,
(PID.TID 0000.0001)   21  &end
(PID.TID 0000.0001)   22
(PID.TID 0000.0001) // =======================================================
(PID.TID 0000.0001) // Parameter file "data.off"
(PID.TID 0000.0001) // =======================================================
(PID.TID 0000.0001) > &OFFLINE_PARM01
(PID.TID 0000.0001) >  UvelFile= '/nobackup1/stephdut/ECCO_Iter3.73daily/DDuvel/DDuvel',
(PID.TID 0000.0001) >  VvelFile= '/nobackup1/stephdut/ECCO_Iter3.73daily/DDvvel/DDvvel',
(PID.TID 0000.0001) >  WvelFile= '/nobackup1/stephdut/ECCO_Iter3.73daily/DDwvel/DDwvel',
(PID.TID 0000.0001) >  GMwxFile= '/nobackup1/stephdut/ECCO_Iter3.73daily/DGMkwx/DGMkwx',
(PID.TID 0000.0001) >  GMwyFile= '/nobackup1/stephdut/ECCO_Iter3.73daily/DGMkwy/DGMkwy',
(PID.TID 0000.0001) >  GMwzFile= '/nobackup1/stephdut/ECCO_Iter3.73daily/DGMkwz/DGMkwz',
(PID.TID 0000.0001) ># ConvFile= 'input_off/Convtave',
(PID.TID 0000.0001) >  SaltFile= '/nobackup1/stephdut/ECCO_Iter3.73daily/DDsalt/DDsalt',
(PID.TID 0000.0001) >  ThetFile= '/nobackup1/stephdut/ECCO_Iter3.73daily/DDtheta/DDtheta',
(PID.TID 0000.0001) >  SFluxFile='/nobackup1/stephdut/ECCO_Iter3.73daily/DFOSflux/DFOSflux',
(PID.TID 0000.0001) ># HFluxFile=' ',
(PID.TID 0000.0001) >  KPP_DiffSFile='/nobackup1/stephdut/ECCO_Iter3.73daily/DKPPdiffs/DKPPdiffs',
(PID.TID 0000.0001) >  KPP_ghatKFile='/nobackup1/stephdut/ECCO_Iter3.73daily/DKPPghatK/DKPPghatK',
(PID.TID 0000.0001) >### offGen2DFile='/nobackup1/stephdut/ECCO_Iter3.73daily/SIarea/SIarea',
(PID.TID 0000.0001) > &end
(PID.TID 0000.0001) >
(PID.TID 0000.0001) > &OFFLINE_PARM02
(PID.TID 0000.0001) >  offlineIter0=78912,
(PID.TID 0000.0001) >  deltaToffline=3600.,
(PID.TID 0000.0001) >  offlineForcingPeriod=86400.,
(PID.TID 0000.0001) >  offlineForcingCycle=31104000.,
(PID.TID 0000.0001) >  offlineLoadPrec=32,
(PID.TID 0000.0001) > &end
(PID.TID 0000.0001) >
(PID.TID 0000.0001) 
(PID.TID 0000.0001)  OFFLINE_READPARMS: finished reading data.off
(PID.TID 0000.0001)  DIAGNOSTICS_READPARMS: opening data.diagnostics
(PID.TID 0000.0001)  OPEN_COPY_DATA_FILE: opening file data.diagnostics
(PID.TID 0000.0001) // =======================================================
(PID.TID 0000.0001) // Removing comments from "data.diagnostics"
(PID.TID 0000.0001) // =======================================================
(PID.TID 0000.0001)    1  &diagnostics_list
(PID.TID 0000.0001)    2   frequency(1) = 2592000.,
(PID.TID 0000.0001)    3   fields( 1,1) = 'TRAC01  ',
(PID.TID 0000.0001)    4   fields( 2,1) = 'TRAC02  ',
(PID.TID 0000.0001)    5   fields( 3,1) = 'TRAC03  ',
(PID.TID 0000.0001)    6   fields( 4,1) = 'TRAC04  ',
(PID.TID 0000.0001)    7   fields( 5,1) = 'TRAC05  ',
(PID.TID 0000.0001)    8   fields( 6,1) = 'TRAC06  ',
(PID.TID 0000.0001)    9   fields( 7,1) = 'TRAC07  ',
(PID.TID 0000.0001)   10   fields( 8,1) = 'TRAC08  ',
(PID.TID 0000.0001)   11   fields( 9,1) = 'TRAC09  ',
(PID.TID 0000.0001)   12   fields(10,1) = 'TRAC10  ',
(PID.TID 0000.0001)   13   fields(11,1) = 'TRAC11  ',
(PID.TID 0000.0001)   14   fields(12,1) = 'TRAC12  ',
(PID.TID 0000.0001)   15   fields(13,1) = 'TRAC13  ',
(PID.TID 0000.0001)   16   fields(14,1) = 'TRAC14  ',
(PID.TID 0000.0001)   17   fields(15,1) = 'TRAC15  ',
(PID.TID 0000.0001)   18   fields(16,1) = 'TRAC16  ',
(PID.TID 0000.0001)   19   fields(17,1) = 'TRAC17  ',
(PID.TID 0000.0001)   20   fields(18,1) = 'TRAC18  ',
(PID.TID 0000.0001)   21   fields(19,1) = 'TRAC19  ',
(PID.TID 0000.0001)   22   fields(20,1) = 'TRAC20  ',
(PID.TID 0000.0001)   23   fields(21,1) = 'TRAC21  ',
(PID.TID 0000.0001)   24   fields(22,1) = 'TRAC22  ',
(PID.TID 0000.0001)   25   fields(23,1) = 'TRAC23  ',
(PID.TID 0000.0001)   26   fields(24,1) = 'TRAC24  ',
(PID.TID 0000.0001)   27   fields(25,1) = 'TRAC25  ',
(PID.TID 0000.0001)   28   fields(26,1) = 'TRAC26  ',
(PID.TID 0000.0001)   29   fields(27,1) = 'TRAC27  ',
(PID.TID 0000.0001)   30   fields(28,1) = 'TRAC28  ',
(PID.TID 0000.0001)   31   fields(29,1) = 'TRAC29  ',
(PID.TID 0000.0001)   32   fields(30,1) = 'TRAC30  ',
(PID.TID 0000.0001)   33   fields(31,1) = 'TRAC31  ',
(PID.TID 0000.0001)   34   fields(32,1) = 'TRAC32  ',
(PID.TID 0000.0001)   35   fields(33,1) = 'TRAC33  ',
(PID.TID 0000.0001)   36   fields(34,1) = 'TRAC34  ',
(PID.TID 0000.0001)   37   fields(35,1) = 'TRAC35  ',
(PID.TID 0000.0001)   38   fields(36,1) = 'TRAC36  ',
(PID.TID 0000.0001)   39   fields(37,1) = 'TRAC37  ',
(PID.TID 0000.0001)   40   fields(38,1) = 'TRAC38  ',
(PID.TID 0000.0001)   41   fields(39,1) = 'TRAC39  ',
(PID.TID 0000.0001)   42   fields(40,1) = 'TRAC40  ',
(PID.TID 0000.0001)   43   fields(41,1) = 'TRAC41  ',
(PID.TID 0000.0001)   44   fields(42,1) = 'TRAC42  ',
(PID.TID 0000.0001)   45   fields(43,1) = 'TRAC43  ',
(PID.TID 0000.0001)   46   fields(44,1) = 'TRAC44  ',
(PID.TID 0000.0001)   47   fields(45,1) = 'TRAC45  ',
(PID.TID 0000.0001)   48   fields(46,1) = 'TRAC46  ',
(PID.TID 0000.0001)   49   fields(47,1) = 'TRAC47  ',
(PID.TID 0000.0001)   50   fields(48,1) = 'TRAC48  ',
(PID.TID 0000.0001)   51   fields(49,1) = 'TRAC49  ',
(PID.TID 0000.0001)   52   fields(50,1) = 'TRAC50  ',
(PID.TID 0000.0001)   53   fields(51,1) = 'TRAC51  ',
(PID.TID 0000.0001)   54   fields(52,1) = 'TRAC52  ',
(PID.TID 0000.0001)   55   fields(53,1) = 'TRAC53  ',
(PID.TID 0000.0001)   56   fields(54,1) = 'TRAC54  ',
(PID.TID 0000.0001)   57   fields(55,1) = 'TRAC55  ',
(PID.TID 0000.0001)   58   fields(56,1) = 'TRAC56  ',
(PID.TID 0000.0001)   59   fields(57,1) = 'TRAC57  ',
(PID.TID 0000.0001)   60   fields(58,1) = 'TRAC58  ',
(PID.TID 0000.0001)   61   fields(59,1) = 'TRAC59  ',
(PID.TID 0000.0001)   62   fields(60,1) = 'TRAC60  ',
(PID.TID 0000.0001)   63   fields(61,1) = 'TRAC61  ',
(PID.TID 0000.0001)   64   fields(62,1) = 'TRAC62  ',
(PID.TID 0000.0001)   65   fields(63,1) = 'TRAC63  ',
(PID.TID 0000.0001)   66   fields(64,1) = 'TRAC64  ',
(PID.TID 0000.0001)   67   fields(65,1) = 'TRAC65  ',
(PID.TID 0000.0001)   68   fields(66,1) = 'TRAC66  ',
(PID.TID 0000.0001)   69   fields(67,1) = 'TRAC67  ',
(PID.TID 0000.0001)   70   fields(68,1) = 'TRAC68  ',
(PID.TID 0000.0001)   71   fields(69,1) = 'TRAC69  ',
(PID.TID 0000.0001)   72   fields(70,1) = 'TRAC70  ',
(PID.TID 0000.0001)   73   fields(71,1) = 'TRAC71  ',
(PID.TID 0000.0001)   74   fields(72,1) = 'TRAC72  ',
(PID.TID 0000.0001)   75   fields(73,1) = 'TRAC73  ',
(PID.TID 0000.0001)   76   fields(74,1) = 'TRAC74  ',
(PID.TID 0000.0001)   77   fields(75,1) = 'TRAC75  ',
(PID.TID 0000.0001)   78   fields(76,1) = 'TRAC76  ',
(PID.TID 0000.0001)   79   fields(77,1) = 'TRAC77  ',
(PID.TID 0000.0001)   80   fields(78,1) = 'TRAC78  ',
(PID.TID 0000.0001)   81   fields(79,1) = 'TRAC79  ',
(PID.TID 0000.0001)   82   fields(80,1) = 'TRAC80  ',
(PID.TID 0000.0001)   83   fields(81,1) = 'TRAC81  ',
(PID.TID 0000.0001)   84   fields(82,1) = 'PAR01   ',
(PID.TID 0000.0001)   85   fields(83,1) = 'PP      ',
(PID.TID 0000.0001)   86   fields(84,1) = 'Nfix    ',
(PID.TID 0000.0001)   87   fields(85,1) = 'Denit   ',
(PID.TID 0000.0001)   88   filename( 1) = 'gud',
(PID.TID 0000.0001)   89  /
(PID.TID 0000.0001)   90
(PID.TID 0000.0001)   91  &DIAG_STATIS_PARMS
(PID.TID 0000.0001)   92  diagst_mnc=.FALSE.,
(PID.TID 0000.0001)   93      stat_freq(1:3)= 3*10800.,
(PID.TID 0000.0001)   94     stat_phase(1:3)= 3*0.,
(PID.TID 0000.0001)   95  stat_fields(1,1)= 'PP      '
(PID.TID 0000.0001)   96  stat_fields(1,2)= 'Nfix    '
(PID.TID 0000.0001)   97  stat_fields(1,3)= 'Denit   '
(PID.TID 0000.0001)   98     stat_fname(1)= 'statsPP',
(PID.TID 0000.0001)   99     stat_fname(2)= 'statsNfix',
(PID.TID 0000.0001)  100     stat_fname(3)= 'statsDenit',
(PID.TID 0000.0001)  101  /
(PID.TID 0000.0001) // =======================================================
(PID.TID 0000.0001) // Parameter file "data.diagnostics"
(PID.TID 0000.0001) // =======================================================
(PID.TID 0000.0001) ># Gud diagnostics
(PID.TID 0000.0001) ># ==================
(PID.TID 0000.0001) ># PAR                 Photosynthetically active radiation
(PID.TID 0000.0001) ># PP                  Primary production
(PID.TID 0000.0001) ># Nfix                Nitrogen fixation
(PID.TID 0000.0001) ># Rstar01             Rstar^PO4 of Phy01
(PID.TID 0000.0001) ># Diver1              # Phy species over absolute threshold'
(PID.TID 0000.0001) ># Diver2              # Phy species over threshold for proportion of biomass'
(PID.TID 0000.0001) ># Diver3              # Phy species constituting bulk of biomass'
(PID.TID 0000.0001) ># Diver4              # Phy species over threshold for ratio to maximum species'
(PID.TID 0000.0001) >#
(PID.TID 0000.0001) > &diagnostics_list
(PID.TID 0000.0001) >#
(PID.TID 0000.0001) >  frequency(1) = 2592000.,
(PID.TID 0000.0001) >  fields( 1,1) = 'TRAC01  ',
(PID.TID 0000.0001) >  fields( 2,1) = 'TRAC02  ',
(PID.TID 0000.0001) >  fields( 3,1) = 'TRAC03  ',
(PID.TID 0000.0001) >  fields( 4,1) = 'TRAC04  ',
(PID.TID 0000.0001) >  fields( 5,1) = 'TRAC05  ',
(PID.TID 0000.0001) >  fields( 6,1) = 'TRAC06  ',
(PID.TID 0000.0001) >  fields( 7,1) = 'TRAC07  ',
(PID.TID 0000.0001) >  fields( 8,1) = 'TRAC08  ',
(PID.TID 0000.0001) >  fields( 9,1) = 'TRAC09  ',
(PID.TID 0000.0001) >  fields(10,1) = 'TRAC10  ',
(PID.TID 0000.0001) >  fields(11,1) = 'TRAC11  ',
(PID.TID 0000.0001) >  fields(12,1) = 'TRAC12  ',
(PID.TID 0000.0001) >  fields(13,1) = 'TRAC13  ',
(PID.TID 0000.0001) >  fields(14,1) = 'TRAC14  ',
(PID.TID 0000.0001) >  fields(15,1) = 'TRAC15  ',
(PID.TID 0000.0001) >  fields(16,1) = 'TRAC16  ',
(PID.TID 0000.0001) >  fields(17,1) = 'TRAC17  ',
(PID.TID 0000.0001) >  fields(18,1) = 'TRAC18  ',
(PID.TID 0000.0001) >  fields(19,1) = 'TRAC19  ',
(PID.TID 0000.0001) >  fields(20,1) = 'TRAC20  ',
(PID.TID 0000.0001) >  fields(21,1) = 'TRAC21  ',
(PID.TID 0000.0001) >  fields(22,1) = 'TRAC22  ',
(PID.TID 0000.0001) >  fields(23,1) = 'TRAC23  ',
(PID.TID 0000.0001) >  fields(24,1) = 'TRAC24  ',
(PID.TID 0000.0001) >  fields(25,1) = 'TRAC25  ',
(PID.TID 0000.0001) >  fields(26,1) = 'TRAC26  ',
(PID.TID 0000.0001) >  fields(27,1) = 'TRAC27  ',
(PID.TID 0000.0001) >  fields(28,1) = 'TRAC28  ',
(PID.TID 0000.0001) >  fields(29,1) = 'TRAC29  ',
(PID.TID 0000.0001) >  fields(30,1) = 'TRAC30  ',
(PID.TID 0000.0001) >  fields(31,1) = 'TRAC31  ',
(PID.TID 0000.0001) >  fields(32,1) = 'TRAC32  ',
(PID.TID 0000.0001) >  fields(33,1) = 'TRAC33  ',
(PID.TID 0000.0001) >  fields(34,1) = 'TRAC34  ',
(PID.TID 0000.0001) >  fields(35,1) = 'TRAC35  ',
(PID.TID 0000.0001) >  fields(36,1) = 'TRAC36  ',
(PID.TID 0000.0001) >  fields(37,1) = 'TRAC37  ',
(PID.TID 0000.0001) >  fields(38,1) = 'TRAC38  ',
(PID.TID 0000.0001) >  fields(39,1) = 'TRAC39  ',
(PID.TID 0000.0001) >  fields(40,1) = 'TRAC40  ',
(PID.TID 0000.0001) >  fields(41,1) = 'TRAC41  ',
(PID.TID 0000.0001) >  fields(42,1) = 'TRAC42  ',
(PID.TID 0000.0001) >  fields(43,1) = 'TRAC43  ',
(PID.TID 0000.0001) >  fields(44,1) = 'TRAC44  ',
(PID.TID 0000.0001) >  fields(45,1) = 'TRAC45  ',
(PID.TID 0000.0001) >  fields(46,1) = 'TRAC46  ',
(PID.TID 0000.0001) >  fields(47,1) = 'TRAC47  ',
(PID.TID 0000.0001) >  fields(48,1) = 'TRAC48  ',
(PID.TID 0000.0001) >  fields(49,1) = 'TRAC49  ',
(PID.TID 0000.0001) >  fields(50,1) = 'TRAC50  ',
(PID.TID 0000.0001) >  fields(51,1) = 'TRAC51  ',
(PID.TID 0000.0001) >  fields(52,1) = 'TRAC52  ',
(PID.TID 0000.0001) >  fields(53,1) = 'TRAC53  ',
(PID.TID 0000.0001) >  fields(54,1) = 'TRAC54  ',
(PID.TID 0000.0001) >  fields(55,1) = 'TRAC55  ',
(PID.TID 0000.0001) >  fields(56,1) = 'TRAC56  ',
(PID.TID 0000.0001) >  fields(57,1) = 'TRAC57  ',
(PID.TID 0000.0001) >  fields(58,1) = 'TRAC58  ',
(PID.TID 0000.0001) >  fields(59,1) = 'TRAC59  ',
(PID.TID 0000.0001) >  fields(60,1) = 'TRAC60  ',
(PID.TID 0000.0001) >  fields(61,1) = 'TRAC61  ',
(PID.TID 0000.0001) >  fields(62,1) = 'TRAC62  ',
(PID.TID 0000.0001) >  fields(63,1) = 'TRAC63  ',
(PID.TID 0000.0001) >  fields(64,1) = 'TRAC64  ',
(PID.TID 0000.0001) >  fields(65,1) = 'TRAC65  ',
(PID.TID 0000.0001) >  fields(66,1) = 'TRAC66  ',
(PID.TID 0000.0001) >  fields(67,1) = 'TRAC67  ',
(PID.TID 0000.0001) >  fields(68,1) = 'TRAC68  ',
(PID.TID 0000.0001) >  fields(69,1) = 'TRAC69  ',
(PID.TID 0000.0001) >  fields(70,1) = 'TRAC70  ',
(PID.TID 0000.0001) >  fields(71,1) = 'TRAC71  ',
(PID.TID 0000.0001) >  fields(72,1) = 'TRAC72  ',
(PID.TID 0000.0001) >  fields(73,1) = 'TRAC73  ',
(PID.TID 0000.0001) >  fields(74,1) = 'TRAC74  ',
(PID.TID 0000.0001) >  fields(75,1) = 'TRAC75  ',
(PID.TID 0000.0001) >  fields(76,1) = 'TRAC76  ',
(PID.TID 0000.0001) >  fields(77,1) = 'TRAC77  ',
(PID.TID 0000.0001) >  fields(78,1) = 'TRAC78  ',
(PID.TID 0000.0001) >  fields(79,1) = 'TRAC79  ',
(PID.TID 0000.0001) >  fields(80,1) = 'TRAC80  ',
(PID.TID 0000.0001) >  fields(81,1) = 'TRAC81  ',
(PID.TID 0000.0001) >  fields(82,1) = 'PAR01   ',
(PID.TID 0000.0001) >  fields(83,1) = 'PP      ',
(PID.TID 0000.0001) >  fields(84,1) = 'Nfix    ',
(PID.TID 0000.0001) >  fields(85,1) = 'Denit   ',
(PID.TID 0000.0001) >  filename( 1) = 'gud',
(PID.TID 0000.0001) >#
(PID.TID 0000.0001) > /
(PID.TID 0000.0001) >
(PID.TID 0000.0001) ># Parameter for Diagnostics of per level statistics:
(PID.TID 0000.0001) >#-----------------
(PID.TID 0000.0001) ># for each output-stream:
(PID.TID 0000.0001) >#  stat_fname(n) : prefix of the output file name (only 8.c long) for
(PID.TID 0000.0001) >#outp.stream n
(PID.TID 0000.0001) >#  stat_freq(n):< 0 : write snap-shot output every |stat_freq| seconds
(PID.TID 0000.0001) >#               > 0 : write time-average output every stat_freq seconds
(PID.TID 0000.0001) >#  stat_phase(n)    : write at time = stat_phase + multiple of |stat_freq|
(PID.TID 0000.0001) >#  stat_region(:,n) : list of "regions" (default: 1 region only=global)
(PID.TID 0000.0001) >#  stat_fields(:,n) : list of diagnostics fields (8.c) (see
(PID.TID 0000.0001) >#"available_diagnostics.log"
(PID.TID 0000.0001) >#                 file for the list of all available diag. in this particular
(PID.TID 0000.0001) >#config)
(PID.TID 0000.0001) >#-----------------
(PID.TID 0000.0001) > &DIAG_STATIS_PARMS
(PID.TID 0000.0001) > diagst_mnc=.FALSE.,
(PID.TID 0000.0001) >     stat_freq(1:3)= 3*10800.,
(PID.TID 0000.0001) >    stat_phase(1:3)= 3*0.,
(PID.TID 0000.0001) > stat_fields(1,1)= 'PP      '
(PID.TID 0000.0001) > stat_fields(1,2)= 'Nfix    '
(PID.TID 0000.0001) > stat_fields(1,3)= 'Denit   '
(PID.TID 0000.0001) >    stat_fname(1)= 'statsPP',
(PID.TID 0000.0001) >    stat_fname(2)= 'statsNfix',
(PID.TID 0000.0001) >    stat_fname(3)= 'statsDenit',
(PID.TID 0000.0001) > /
(PID.TID 0000.0001) 
(PID.TID 0000.0001) S/R DIAGNOSTICS_READPARMS, read namelist "diagnostics_list": start
(PID.TID 0000.0001) S/R DIAGNOSTICS_READPARMS, read namelist "diagnostics_list": OK
(PID.TID 0000.0001) S/R DIAGNOSTICS_READPARMS, read namelist "DIAG_STATIS_PARMS": start
(PID.TID 0000.0001) S/R DIAGNOSTICS_READPARMS, read namelist "DIAG_STATIS_PARMS": OK
(PID.TID 0000.0001)  DIAGNOSTICS_READPARMS: global parameter summary:
(PID.TID 0000.0001)  dumpAtLast = /* always write time-ave diags at the end */
(PID.TID 0000.0001)                   F
(PID.TID 0000.0001)     ;
(PID.TID 0000.0001)  diag_mnc =   /* write NetCDF output files */
(PID.TID 0000.0001)                   T
(PID.TID 0000.0001)     ;
(PID.TID 0000.0001)  useMissingValue = /* put MissingValue where mask = 0 */
(PID.TID 0000.0001)                   F
(PID.TID 0000.0001)     ;
(PID.TID 0000.0001)  diagCG_maxIters = /* max number of iters in diag_cg2d */
(PID.TID 0000.0001)                     300
(PID.TID 0000.0001)     ;
(PID.TID 0000.0001)  diagCG_resTarget = /* residual target for diag_cg2d */
(PID.TID 0000.0001)                 1.000000000000000E-07
(PID.TID 0000.0001)     ;
(PID.TID 0000.0001) -----------------------------------------------------
(PID.TID 0000.0001)  DIAGNOSTICS_READPARMS: active diagnostics summary:
(PID.TID 0000.0001) -----------------------------------------------------
(PID.TID 0000.0001) Creating Output Stream: gud
(PID.TID 0000.0001) Output Frequency:    2592000.000000 ; Phase:           0.000000
(PID.TID 0000.0001)  Averaging Freq.:    2592000.000000 , Phase:           0.000000 , Cycle:   1
(PID.TID 0000.0001)  missing value: -9.990000000000E+02
(PID.TID 0000.0001)  Levels:    will be set later
(PID.TID 0000.0001)  Fields:    TRAC01   TRAC02   TRAC03   TRAC04   TRAC05   TRAC06   TRAC07   TRAC08   TRAC09   TRAC10
(PID.TID 0000.0001)  Fields:    TRAC11   TRAC12   TRAC13   TRAC14   TRAC15   TRAC16   TRAC17   TRAC18   TRAC19   TRAC20
(PID.TID 0000.0001)  Fields:    TRAC21   TRAC22   TRAC23   TRAC24   TRAC25   TRAC26   TRAC27   TRAC28   TRAC29   TRAC30
(PID.TID 0000.0001)  Fields:    TRAC31   TRAC32   TRAC33   TRAC34   TRAC35   TRAC36   TRAC37   TRAC38   TRAC39   TRAC40
(PID.TID 0000.0001)  Fields:    TRAC41   TRAC42   TRAC43   TRAC44   TRAC45   TRAC46   TRAC47   TRAC48   TRAC49   TRAC50
(PID.TID 0000.0001)  Fields:    TRAC51   TRAC52   TRAC53   TRAC54   TRAC55   TRAC56   TRAC57   TRAC58   TRAC59   TRAC60
(PID.TID 0000.0001)  Fields:    TRAC61   TRAC62   TRAC63   TRAC64   TRAC65   TRAC66   TRAC67   TRAC68   TRAC69   TRAC70
(PID.TID 0000.0001)  Fields:    TRAC71   TRAC72   TRAC73   TRAC74   TRAC75   TRAC76   TRAC77   TRAC78   TRAC79   TRAC80
(PID.TID 0000.0001)  Fields:    TRAC81   PAR01    PP       Nfix     Denit
(PID.TID 0000.0001) -----------------------------------------------------
(PID.TID 0000.0001)  DIAGNOSTICS_READPARMS: statistics diags. summary:
(PID.TID 0000.0001) Creating Stats. Output Stream: statsPP
(PID.TID 0000.0001) Output Frequency:      10800.000000 ; Phase:           0.000000
(PID.TID 0000.0001)  Regions:   0
(PID.TID 0000.0001)  Fields:    PP
(PID.TID 0000.0001) Creating Stats. Output Stream: statsNfix
(PID.TID 0000.0001) Output Frequency:      10800.000000 ; Phase:           0.000000
(PID.TID 0000.0001)  Regions:   0
(PID.TID 0000.0001)  Fields:    Nfix
(PID.TID 0000.0001) Creating Stats. Output Stream: statsDenit
(PID.TID 0000.0001) Output Frequency:      10800.000000 ; Phase:           0.000000
(PID.TID 0000.0001)  Regions:   0
(PID.TID 0000.0001)  Fields:    Denit
(PID.TID 0000.0001) -----------------------------------------------------
(PID.TID 0000.0001) 
(PID.TID 0000.0001)  OFFLINE_RESET_PARMS: => turn off Temp,Salt & Mom_Stepping flags
(PID.TID 0000.0001) SET_PARMS: done
(PID.TID 0000.0001) Enter INI_VERTICAL_GRID: setInterFDr=    T ; setCenterDr=    F
(PID.TID 0000.0001) %MON XC_max                       =   3.5950000000000000E+02
(PID.TID 0000.0001) %MON XC_min                       =   5.0000000000000000E-01
(PID.TID 0000.0001) %MON XC_mean                      =   1.8000000000000000E+02
(PID.TID 0000.0001) %MON XC_sd                        =   1.0392264751567228E+02
(PID.TID 0000.0001) %MON XG_max                       =   3.5900000000000000E+02
(PID.TID 0000.0001) %MON XG_min                       =   0.0000000000000000E+00
(PID.TID 0000.0001) %MON XG_mean                      =   1.7950000000000000E+02
(PID.TID 0000.0001) %MON XG_sd                        =   1.0392264751567228E+02
(PID.TID 0000.0001) %MON DXC_max                      =   1.1117324005452037E+05
(PID.TID 0000.0001) %MON DXC_min                      =   2.0260485279198008E+04
(PID.TID 0000.0001) %MON DXC_mean                     =   7.8416312620424709E+04
(PID.TID 0000.0001) %MON DXC_sd                       =   2.8072575688352925E+04
(PID.TID 0000.0001) %MON DXF_max                      =   1.1117324005452037E+05
(PID.TID 0000.0001) %MON DXF_min                      =   2.0260485279198008E+04
(PID.TID 0000.0001) %MON DXF_mean                     =   7.8416312620424709E+04
(PID.TID 0000.0001) %MON DXF_sd                       =   2.8072575688352925E+04
(PID.TID 0000.0001) %MON DXG_max                      =   1.1117747335203880E+05
(PID.TID 0000.0001) %MON DXG_min                      =   1.9305765645195253E+04
(PID.TID 0000.0001) %MON DXG_mean                     =   7.8413326767520935E+04
(PID.TID 0000.0001) %MON DXG_sd                       =   2.8078861897602375E+04
(PID.TID 0000.0001) %MON DXV_max                      =   1.1117747335203880E+05
(PID.TID 0000.0001) %MON DXV_min                      =   1.9305765645195253E+04
(PID.TID 0000.0001) %MON DXV_mean                     =   7.8413326767520935E+04
(PID.TID 0000.0001) %MON DXV_sd                       =   2.8078861897602375E+04
(PID.TID 0000.0001) %MON YC_max                       =   7.9500000000000000E+01
(PID.TID 0000.0001) %MON YC_min                       =  -7.9500000000000000E+01
(PID.TID 0000.0001) %MON YC_mean                      =   0.0000000000000000E+00
(PID.TID 0000.0001) %MON YC_sd                        =   4.6187119416564613E+01
(PID.TID 0000.0001) %MON YG_max                       =   7.9000000000000000E+01
(PID.TID 0000.0001) %MON YG_min                       =  -8.0000000000000000E+01
(PID.TID 0000.0001) %MON YG_mean                      =  -5.0000000000000000E-01
(PID.TID 0000.0001) %MON YG_sd                        =   4.6187119416564613E+01
(PID.TID 0000.0001) %MON DYC_max                      =   1.1117747335203880E+05
(PID.TID 0000.0001) %MON DYC_min                      =   1.1117747335203880E+05
(PID.TID 0000.0001) %MON DYC_mean                     =   1.1117747335204249E+05
(PID.TID 0000.0001) %MON DYC_sd                       =   3.6961864680051804E-09
(PID.TID 0000.0001) %MON DYF_max                      =   1.1117747335203880E+05
(PID.TID 0000.0001) %MON DYF_min                      =   1.1117747335203880E+05
(PID.TID 0000.0001) %MON DYF_mean                     =   1.1117747335204249E+05
(PID.TID 0000.0001) %MON DYF_sd                       =   3.6961864680051804E-09
(PID.TID 0000.0001) %MON DYG_max                      =   1.1117747335203880E+05
(PID.TID 0000.0001) %MON DYG_min                      =   1.1117747335203880E+05
(PID.TID 0000.0001) %MON DYG_mean                     =   1.1117747335204249E+05
(PID.TID 0000.0001) %MON DYG_sd                       =   3.6961864680051804E-09
(PID.TID 0000.0001) %MON DYU_max                      =   1.1117747335203880E+05
(PID.TID 0000.0001) %MON DYU_min                      =   1.1117747335203880E+05
(PID.TID 0000.0001) %MON DYU_mean                     =   1.1117747335204249E+05
(PID.TID 0000.0001) %MON DYU_sd                       =   3.6961864680051804E-09
(PID.TID 0000.0001) %MON RA_max                       =   1.2359803056755941E+10
(PID.TID 0000.0001) %MON RA_min                       =   2.2524809726007752E+09
(PID.TID 0000.0001) %MON RA_mean                      =   8.7180168532477016E+09
(PID.TID 0000.0001) %MON RA_sd                        =   3.1209984222260637E+09
(PID.TID 0000.0001) %MON RAW_max                      =   1.2359803056755941E+10
(PID.TID 0000.0001) %MON RAW_min                      =   2.2524809726007752E+09
(PID.TID 0000.0001) %MON RAW_mean                     =   8.7180168532477016E+09
(PID.TID 0000.0001) %MON RAW_sd                       =   3.1209984222260637E+09
(PID.TID 0000.0001) %MON RAS_max                      =   1.2360273698104368E+10
(PID.TID 0000.0001) %MON RAS_min                      =   2.1463390031403122E+09
(PID.TID 0000.0001) %MON RAS_mean                     =   8.7176848978793430E+09
(PID.TID 0000.0001) %MON RAS_sd                       =   3.1216972982168884E+09
(PID.TID 0000.0001) %MON RAZ_max                      =   1.2360273698104368E+10
(PID.TID 0000.0001) %MON RAZ_min                      =   2.1463390031403122E+09
(PID.TID 0000.0001) %MON RAZ_mean                     =   8.7176848978793430E+09
(PID.TID 0000.0001) %MON RAZ_sd                       =   3.1216972982168884E+09
(PID.TID 0000.0001) %MON AngleCS_max                  =   1.0000000000000000E+00
(PID.TID 0000.0001) %MON AngleCS_min                  =   1.0000000000000000E+00
(PID.TID 0000.0001) %MON AngleCS_mean                 =   1.0000000000000000E+00
(PID.TID 0000.0001) %MON AngleCS_sd                   =   0.0000000000000000E+00
(PID.TID 0000.0001) %MON AngleSN_max                  =   0.0000000000000000E+00
(PID.TID 0000.0001) %MON AngleSN_min                  =   0.0000000000000000E+00
(PID.TID 0000.0001) %MON AngleSN_mean                 =   0.0000000000000000E+00
(PID.TID 0000.0001) %MON AngleSN_sd                   =   0.0000000000000000E+00
(PID.TID 0000.0001)  MDS_READ_FIELD: opening global file: ../../../input/eccov3_R8/bathy_fl.bin
(PID.TID 0000.0001) // =======================================================
(PID.TID 0000.0001) // Field Model R_low (ini_masks_etc)
(PID.TID 0000.0001) // CMIN =         -5.700000000000000E+03
(PID.TID 0000.0001) // CMAX =         -3.500000000000000E+01
(PID.TID 0000.0001) // CINT =          2.098148148148148E+02
(PID.TID 0000.0001) // SYMBOLS (CMIN->CMAX): -abcdefghijklmnopqrstuvwxyz+
(PID.TID 0000.0001) //                  0.0: .
(PID.TID 0000.0001) // RANGE I (Lo:Hi:Step):(    -3:    49:     1)
(PID.TID 0000.0001) // RANGE J (Lo:Hi:Step):(    44:    -3:    -1)
(PID.TID 0000.0001) // RANGE K (Lo:Hi:Step):(   1:   1:   1)
(PID.TID 0000.0001) // =======================================================
(PID.TID 0000.0001) K =   1
(PID.TID 0000.0001) //                I=6       I=16      I=26      I=36      I=46
(PID.TID 0000.0001) // |--J--|321012345|789012345|789012345|789012345|789012345|789
(PID.TID 0000.0001) //     44 geebbbbbbbbebbbbbeeeegjnzzqgegjgeeeggjjb-bbbeeejnljjj
(PID.TID 0000.0001) //     43 ggebbbbbbbebbbbbbbeeeeeeggbbelllgggggjgbbbbeeggnljlln
(PID.TID 0000.0001) //     42 eeebbbbbbbbbbbbbbeeeeeeebbbbglnlgggggjebbbbeggjnlllqq
(PID.TID 0000.0001) //     41 eeebbbbbbbbbbbebeeeeeeeebbbbjnnlgggjggbbbbeejjnnlnnnl
(PID.TID 0000.0001) //     40 ggeeeeeebbbbbeeeeeqeeebbbbbelnnnjgeegebeeggjjnqnnnlll
(PID.TID 0000.0001) //     39 ggjlnjeeeeeeeeeeggeebbbbbbbglnllgebbbbeegjjlnqqnlllll
(PID.TID 0000.0001) //     38 ggjnljjeeeeeegjgeeeebbbbbbegggeeebbbbeeggjlnnqlllllll
(PID.TID 0000.0001) //     37 ggjgggggeegjgggeeeeeeeeebeeebbbbbbbbeeggllnqqqnnnnnnn
(PID.TID 0000.0001) //     36 jjgggeegjgggeeeeeeeeeeeegeebbbb---beegjlqqqqqqqqssqnn
(PID.TID 0000.0001) //     35 jjjgggeeggggeeeeeeeeeeegeeebbb---bbegjnnqqqqqssssssqn
(PID.TID 0000.0001) //     34 gggjggeeegjnjeeeeeeeee-beeebbb--bbegjnlllnnnllqnnqqnl
(PID.TID 0000.0001) //     33 jggjgggeeggqljgeeeeeeebbebeebbbbbbggnljjjjggjjjjjjllj
(PID.TID 0000.0001) //     32 jjjjjjggjjjljjggggeegeeeeeeeebbbbegjjgjgggggggggggggg
(PID.TID 0000.0001) //     31 llljjjjjjjlnggjjgggeggggggggeeeeeggjgeeeeeggggggggggg
(PID.TID 0000.0001) //     30 nnnnlllnlljjggjjjljjjjjjggggeegeggeebebbeggjjjjggggge
(PID.TID 0000.0001) //     29 nnnnqnlnjjjjgjjlnlllllljjjjggggjgeebbbeeegglllnnljjge
(PID.TID 0000.0001) //     28 qqqnnnnlljjjjllnllnllnnnllllljjjeeb-bbbeegglnqnqnlljg
(PID.TID 0000.0001) //     27 qqqnnnnnnnnnlljljjggjjlllllllegeebbbbbbeegjnnnllsnllq
(PID.TID 0000.0001) //     26 nnqqqnqsqnnlljjggeeeggjjjjjjggeebb-bbbbeegjllljjgggee
(PID.TID 0000.0001) //     25 lllljjllllljgegebbbbeeeggjjjebeb---bbbbbbegjgggeeeeeb
(PID.TID 0000.0001) //     24 ljjjjggjggeeebbbbbbbbbeegejjebbbbbb-bbbbbbbbbeeeebbbb
(PID.TID 0000.0001) //     23 jjjgggggeeeebbb----bbbbeeebebbbbbbb-bbbbbbbbbbbbbbbbb
(PID.TID 0000.0001) //     22 eeeggeebbbbbebbb--bbbbbbbbbbbbbbbbbbbbbbbbbbbbbbbbbbb
(PID.TID 0000.0001) //     21 bbbbbbbbbbbbbbbbbbbbbbbbbbbbbbbbbbbbbbbbbbbbbbbbbbbbb
(PID.TID 0000.0001) //     20 bbbbbbbbbbbbbbbbbbbbbbbbbbbbbbbbbbbbbbbbbbbbbbbbbbbbb
(PID.TID 0000.0001) //     19 bbbbbbbbbbbbbbbebbbbbbbbbbbbbbbbbbbbbbbbbbbbbbbbbbbbb
(PID.TID 0000.0001) //     18 bbbbbbbbbbbbbbbbbbbbbbbbbbbbbbbbbbbbbbbbbbbbbbbbeeeeb
(PID.TID 0000.0001) //     17 bbbbbbeeeeebbbbbbbbbbbbbbbbbbbbbbbbbbbbbbbbeeeeeeegge
(PID.TID 0000.0001) //     16 bbbbgnqnnjeeebbeeeeeebbbbbbbbbbbbbbeegeeeeeeeggggjjlj
(PID.TID 0000.0001) //     15 eebglnnljggggggjllljgeeeeeeeeeeeeeegjnngeeeeeggjjllnq
(PID.TID 0000.0001) //     14 eeeejgjjgggggjjllljggeeeeeeeeeeegggglulggeeggglnnqsxy
(PID.TID 0000.0001) //     13 ggeeeegjggggjlnqlljgggggggggggjjjjjnvvnlljjlnnuyyy...
(PID.TID 0000.0001) //     12 jggggggjllllllnsqnllljjjjjjjjjjjlnsyz..yxxyyy........
(PID.TID 0000.0001) //     11 nlnqsqqqqqsssquzzyxyxvssssnlnnquvx++......++.........
(PID.TID 0000.0001) //     10 z+zyz+..z++...++..........yy.........................
(PID.TID 0000.0001) //      9 .....................................................
(PID.TID 0000.0001) //      8 .....................................................
(PID.TID 0000.0001) //      7 .....................................................
(PID.TID 0000.0001) //      6 .....................................................
(PID.TID 0000.0001) //      5 .....................................................
(PID.TID 0000.0001) //      4 .....................................................
(PID.TID 0000.0001) //      3 .....................................................
(PID.TID 0000.0001) //      2 .....................................................
(PID.TID 0000.0001) //      1 .....................................................
(PID.TID 0000.0001) //      0 sqnnnlllnquvyz+......................................
(PID.TID 0000.0001) //     -1 snnnnnnnqqqquyz......................................
(PID.TID 0000.0001) //     -2 qnllllllnnqqnsxzzz...................................
(PID.TID 0000.0001) //     -3 ljlllllllnqnnqqsuxz+.................................
(PID.TID 0000.0001) // =======================================================
(PID.TID 0000.0001) // END OF FIELD                                          =
(PID.TID 0000.0001) // =======================================================
(PID.TID 0000.0001) 
(PID.TID 0000.0001) // =======================================================
(PID.TID 0000.0001) // Field Model Ro_surf (ini_masks_etc)
(PID.TID 0000.0001) // CMIN =          1.000000000000000E+32
(PID.TID 0000.0001) // CMAX =         -1.000000000000000E+32
(PID.TID 0000.0001) // CINT =          0.000000000000000E+00
(PID.TID 0000.0001) // SYMBOLS (CMIN->CMAX): -abcdefghijklmnopqrstuvwxyz+
(PID.TID 0000.0001) //                  0.0: .
(PID.TID 0000.0001) // RANGE I (Lo:Hi:Step):(    -3:    49:     1)
(PID.TID 0000.0001) // RANGE J (Lo:Hi:Step):(    44:    -3:    -1)
(PID.TID 0000.0001) // RANGE K (Lo:Hi:Step):(   1:   1:   1)
(PID.TID 0000.0001) // =======================================================
(PID.TID 0000.0001) // =======================================================
(PID.TID 0000.0001) // END OF FIELD                                          =
(PID.TID 0000.0001) // =======================================================
(PID.TID 0000.0001) 
(PID.TID 0000.0001) // =======================================================
(PID.TID 0000.0001) // Field hFacC at iteration          0
(PID.TID 0000.0001) // CMIN =          1.000000000000000E+00
(PID.TID 0000.0001) // CMAX =          1.000000000000000E+00
(PID.TID 0000.0001) // CINT =          0.000000000000000E+00
(PID.TID 0000.0001) // SYMBOLS (CMIN->CMAX): -abcdefghijklmnopqrstuvwxyz+
(PID.TID 0000.0001) //                  0.0: .
(PID.TID 0000.0001) // RANGE I (Lo:Hi:Step):(    -3:    49:     1)
(PID.TID 0000.0001) // RANGE J (Lo:Hi:Step):(    44:    -3:    -1)
(PID.TID 0000.0001) // RANGE K (Lo:Hi:Step):(   1:   1:   1)
(PID.TID 0000.0001) // =======================================================
(PID.TID 0000.0001) // =======================================================
(PID.TID 0000.0001) // END OF FIELD                                          =
(PID.TID 0000.0001) // =======================================================
(PID.TID 0000.0001) 
(PID.TID 0000.0001) // =======================================================
(PID.TID 0000.0001) // Field hFacW at iteration          0
(PID.TID 0000.0001) // CMIN =          1.000000000000000E+00
(PID.TID 0000.0001) // CMAX =          1.000000000000000E+00
(PID.TID 0000.0001) // CINT =          0.000000000000000E+00
(PID.TID 0000.0001) // SYMBOLS (CMIN->CMAX): -abcdefghijklmnopqrstuvwxyz+
(PID.TID 0000.0001) //                  0.0: .
(PID.TID 0000.0001) // RANGE I (Lo:Hi:Step):(    -3:    49:     1)
(PID.TID 0000.0001) // RANGE J (Lo:Hi:Step):(    44:    -3:    -1)
(PID.TID 0000.0001) // RANGE K (Lo:Hi:Step):(   1:   1:   1)
(PID.TID 0000.0001) // =======================================================
(PID.TID 0000.0001) // =======================================================
(PID.TID 0000.0001) // END OF FIELD                                          =
(PID.TID 0000.0001) // =======================================================
(PID.TID 0000.0001) 
(PID.TID 0000.0001) // =======================================================
(PID.TID 0000.0001) // Field hFacS at iteration          0
(PID.TID 0000.0001) // CMIN =          1.000000000000000E+00
(PID.TID 0000.0001) // CMAX =          1.000000000000000E+00
(PID.TID 0000.0001) // CINT =          0.000000000000000E+00
(PID.TID 0000.0001) // SYMBOLS (CMIN->CMAX): -abcdefghijklmnopqrstuvwxyz+
(PID.TID 0000.0001) //                  0.0: .
(PID.TID 0000.0001) // RANGE I (Lo:Hi:Step):(    -3:    49:     1)
(PID.TID 0000.0001) // RANGE J (Lo:Hi:Step):(    44:    -3:    -1)
(PID.TID 0000.0001) // RANGE K (Lo:Hi:Step):(   1:   1:   1)
(PID.TID 0000.0001) // =======================================================
(PID.TID 0000.0001) // =======================================================
(PID.TID 0000.0001) // END OF FIELD                                          =
(PID.TID 0000.0001) // =======================================================
(PID.TID 0000.0001) 
(PID.TID 0000.0001) 
(PID.TID 0000.0001) // =======================================================
(PID.TID 0000.0001) // Calendar configuration >>> START <<<
(PID.TID 0000.0001) // =======================================================
(PID.TID 0000.0001) 
(PID.TID 0000.0001) modelstart = /* Start time of the model integration [s] */
(PID.TID 0000.0001)                 0.000000000000000E+00
(PID.TID 0000.0001)     ;
(PID.TID 0000.0001) modelend  = /* End time of the model integration [s] */
(PID.TID 0000.0001)                 4.320000000000000E+04
(PID.TID 0000.0001)     ;
(PID.TID 0000.0001) modelstep = /* Time interval for a model forward step [s] */
(PID.TID 0000.0001)                 1.080000000000000E+04
(PID.TID 0000.0001)     ;
(PID.TID 0000.0001) usingGregorianCalendar= /* Calendar Type: Gregorian Calendar */
(PID.TID 0000.0001)                   F
(PID.TID 0000.0001)     ;
(PID.TID 0000.0001) usingJulianCalendar = /* Calendar Type: Julian Calendar */
(PID.TID 0000.0001)                   F
(PID.TID 0000.0001)     ;
(PID.TID 0000.0001) usingModelCalendar  = /* Calendar Type: Model Calendar */
(PID.TID 0000.0001)                   T
(PID.TID 0000.0001)     ;
(PID.TID 0000.0001) modelstartdate YYYYMMDD = /* Model start date YYYY-MM-DD */
(PID.TID 0000.0001)                20000101
(PID.TID 0000.0001)     ;
(PID.TID 0000.0001)   modelstartdate HHMMSS = /* Model start date HH-MM-SS  */
(PID.TID 0000.0001)                       0
(PID.TID 0000.0001)     ;
(PID.TID 0000.0001) modelenddate   YYYYMMDD = /* Model end date YYYY-MM-DD */
(PID.TID 0000.0001)                20000101
(PID.TID 0000.0001)     ;
(PID.TID 0000.0001)   modelenddate   HHMMSS = /* Model end date HH-MM-SS  */
(PID.TID 0000.0001)                  120000
(PID.TID 0000.0001)     ;
(PID.TID 0000.0001) intyears = /* Number of calendar years affected by the integration */
(PID.TID 0000.0001)                       1
(PID.TID 0000.0001)     ;
(PID.TID 0000.0001) intmonths= /* Number of calendar months affected by the integration */
(PID.TID 0000.0001)                       1
(PID.TID 0000.0001)     ;
(PID.TID 0000.0001) intdays = /* Number of calendar days affected by the integration */
(PID.TID 0000.0001)                       1
(PID.TID 0000.0001)     ;
(PID.TID 0000.0001) modeliter0 = /* Base timestep number  */
(PID.TID 0000.0001)                       0
(PID.TID 0000.0001)     ;
(PID.TID 0000.0001) modeliterend = /* Final timestep number  */
(PID.TID 0000.0001)                       4
(PID.TID 0000.0001)     ;
(PID.TID 0000.0001) modelintsteps= /* Number of model timesteps  */
(PID.TID 0000.0001)                       4
(PID.TID 0000.0001)     ;
(PID.TID 0000.0001) 
(PID.TID 0000.0001) // =======================================================
(PID.TID 0000.0001) // Calendar configuration  >>> END <<<
(PID.TID 0000.0001) // =======================================================
(PID.TID 0000.0001) 
(PID.TID 0000.0001) GAD_INIT_FIXED: GAD_OlMinSize=  0  0  1
(PID.TID 0000.0001) 
(PID.TID 0000.0001) // ===================================
(PID.TID 0000.0001) // GAD parameters :
(PID.TID 0000.0001) // ===================================
(PID.TID 0000.0001) tempAdvScheme =   /* Temp. Horiz.Advection scheme selector */
(PID.TID 0000.0001)                       3
(PID.TID 0000.0001)     ;
(PID.TID 0000.0001) tempVertAdvScheme =   /* Temp. Vert. Advection scheme selector */
(PID.TID 0000.0001)                       3
(PID.TID 0000.0001)     ;
(PID.TID 0000.0001) tempMultiDimAdvec =   /* use Muti-Dim Advec method for Temp */
(PID.TID 0000.0001)                   F
(PID.TID 0000.0001)     ;
(PID.TID 0000.0001) tempSOM_Advection = /* use 2nd Order Moment Advection for Temp */
(PID.TID 0000.0001)                   F
(PID.TID 0000.0001)     ;
(PID.TID 0000.0001) AdamsBashforthGt = /* apply Adams-Bashforth extrapolation on Gt */
(PID.TID 0000.0001)                   F
(PID.TID 0000.0001)     ;
(PID.TID 0000.0001) AdamsBashforth_T = /* apply Adams-Bashforth extrapolation on Temp */
(PID.TID 0000.0001)                   F
(PID.TID 0000.0001)     ;
(PID.TID 0000.0001) saltAdvScheme =   /* Salt. Horiz.advection scheme selector */
(PID.TID 0000.0001)                       3
(PID.TID 0000.0001)     ;
(PID.TID 0000.0001) saltVertAdvScheme =   /* Salt. Vert. Advection scheme selector */
(PID.TID 0000.0001)                       3
(PID.TID 0000.0001)     ;
(PID.TID 0000.0001) saltMultiDimAdvec =   /* use Muti-Dim Advec method for Salt */
(PID.TID 0000.0001)                   F
(PID.TID 0000.0001)     ;
(PID.TID 0000.0001) saltSOM_Advection = /* use 2nd Order Moment Advection for Salt */
(PID.TID 0000.0001)                   F
(PID.TID 0000.0001)     ;
(PID.TID 0000.0001) AdamsBashforthGs = /* apply Adams-Bashforth extrapolation on Gs */
(PID.TID 0000.0001)                   F
(PID.TID 0000.0001)     ;
(PID.TID 0000.0001) AdamsBashforth_S = /* apply Adams-Bashforth extrapolation on Salt */
(PID.TID 0000.0001)                   F
(PID.TID 0000.0001)     ;
(PID.TID 0000.0001) SmolarkiewiczMaxFrac = /* maximal fraction of tracer to flow out of a cell */
(PID.TID 0000.0001)                 1.000000000000000E+00
(PID.TID 0000.0001)     ;
(PID.TID 0000.0001) // ===================================
(PID.TID 0000.0001) 
(PID.TID 0000.0001) // =======================================================
(PID.TID 0000.0001) // External forcing (EXF) configuration >>> START <<<
(PID.TID 0000.0001) // =======================================================
(PID.TID 0000.0001) 
(PID.TID 0000.0001)  EXF general parameters:
(PID.TID 0000.0001) 
(PID.TID 0000.0001) exf_iprec = /* exf file precision */
(PID.TID 0000.0001)                      32
(PID.TID 0000.0001)     ;
(PID.TID 0000.0001) useExfYearlyFields = /* add extension _YEAR to input file names */
(PID.TID 0000.0001)                   F
(PID.TID 0000.0001)     ;
(PID.TID 0000.0001) twoDigitYear = /* use 2-digit year extension */
(PID.TID 0000.0001)                   F
(PID.TID 0000.0001)     ;
(PID.TID 0000.0001) exf_verbose = /* print more messages to STDOUT */
(PID.TID 0000.0001)                   F
(PID.TID 0000.0001)     ;
(PID.TID 0000.0001) useExfCheckRange = /* check for fields range */
(PID.TID 0000.0001)                   F
(PID.TID 0000.0001)     ;
(PID.TID 0000.0001) exf_monFreq = /* EXF monitor frequency [ s ] */
(PID.TID 0000.0001)                 1.000000000000000E+00
(PID.TID 0000.0001)     ;
(PID.TID 0000.0001) repeatPeriod = /* period for cycling forcing dataset [ s ] */
(PID.TID 0000.0001)                 3.110400000000000E+07
(PID.TID 0000.0001)     ;
(PID.TID 0000.0001) climTempFreeze= /* Minimum climatological temperature [deg.C] */
(PID.TID 0000.0001)                -1.900000000000000E+00
(PID.TID 0000.0001)     ;
(PID.TID 0000.0001) windStressMax = /* Maximum absolute windstress [ Pa ] */
(PID.TID 0000.0001)                 2.000000000000000E+00
(PID.TID 0000.0001)     ;
(PID.TID 0000.0001) stressIsOnCgrid = /* set u,v_stress on Arakawa C-grid */
(PID.TID 0000.0001)                   F
(PID.TID 0000.0001)     ;
(PID.TID 0000.0001) cen2kel = /* conversion of deg. Centigrade to Kelvin [K] */
(PID.TID 0000.0001)                 2.731500000000000E+02
(PID.TID 0000.0001)     ;
(PID.TID 0000.0001) gravity_mks= /* gravitational acceleration [m/s^2] */
(PID.TID 0000.0001)                 9.810000000000000E+00
(PID.TID 0000.0001)     ;
(PID.TID 0000.0001) atmrho =  /* mean atmospheric density [kg/m^3] */
(PID.TID 0000.0001)                 1.200000000000000E+00
(PID.TID 0000.0001)     ;
(PID.TID 0000.0001) atmcp =  /* mean atmospheric specific heat [J/kg/K] */
(PID.TID 0000.0001)                 1.005000000000000E+03
(PID.TID 0000.0001)     ;
(PID.TID 0000.0001) flamb =  /* latent heat of evaporation [J/kg] */
(PID.TID 0000.0001)                 2.500000000000000E+06
(PID.TID 0000.0001)     ;
(PID.TID 0000.0001) flami =  /* latent heat of pure-ice melting [J/kg] */
(PID.TID 0000.0001)                 3.340000000000000E+05
(PID.TID 0000.0001)     ;
(PID.TID 0000.0001) cvapor_fac = /* const. for Saturation calculation [?] */
(PID.TID 0000.0001)                 6.403800000000000E+05
(PID.TID 0000.0001)     ;
(PID.TID 0000.0001) cvapor_exp = /* const. for Saturation calculation [?] */
(PID.TID 0000.0001)                 5.107400000000000E+03
(PID.TID 0000.0001)     ;
(PID.TID 0000.0001) cvapor_fac_ice= /* const. for Saturation calculation [?] */
(PID.TID 0000.0001)                 1.163780000000000E+07
(PID.TID 0000.0001)     ;
(PID.TID 0000.0001) cvapor_exp_ice= /* const. for Saturation calculation [?] */
(PID.TID 0000.0001)                 5.897800000000000E+03
(PID.TID 0000.0001)     ;
(PID.TID 0000.0001) humid_fac = /* humidity coef. in virtual temp. [(kg/kg)^-1] */
(PID.TID 0000.0001)                 6.060000000000000E-01
(PID.TID 0000.0001)     ;
(PID.TID 0000.0001) gamma_blk = /* adiabatic lapse rate [?] */
(PID.TID 0000.0001)                 1.000000000000000E-02
(PID.TID 0000.0001)     ;
(PID.TID 0000.0001) saltsat = /* reduction of Qsat over salty water [-] */
(PID.TID 0000.0001)                 9.800000000000000E-01
(PID.TID 0000.0001)     ;
(PID.TID 0000.0001) noNegativeEvap = /* prevent negative Evaporation */
(PID.TID 0000.0001)                   F
(PID.TID 0000.0001)     ;
(PID.TID 0000.0001) sstExtrapol = /* extrapolation coeff from lev. 1 & 2 to surf [-] */
(PID.TID 0000.0001)                 0.000000000000000E+00
(PID.TID 0000.0001)     ;
(PID.TID 0000.0001) cDrag_1 = /* coef used in drag calculation [?] */
(PID.TID 0000.0001)                 2.700000000000000E-03
(PID.TID 0000.0001)     ;
(PID.TID 0000.0001) cDrag_2 = /* coef used in drag calculation [?] */
(PID.TID 0000.0001)                 1.420000000000000E-04
(PID.TID 0000.0001)     ;
(PID.TID 0000.0001) cDrag_3 = /* coef used in drag calculation [?] */
(PID.TID 0000.0001)                 7.640000000000000E-05
(PID.TID 0000.0001)     ;
(PID.TID 0000.0001) cStanton_1 = /* coef used in Stanton number calculation [?] */
(PID.TID 0000.0001)                 3.270000000000000E-02
(PID.TID 0000.0001)     ;
(PID.TID 0000.0001) cStanton_2 = /* coef used in Stanton number calculation [?] */
(PID.TID 0000.0001)                 1.800000000000000E-02
(PID.TID 0000.0001)     ;
(PID.TID 0000.0001) cDalton = /* coef used in Dalton number calculation [?] */
(PID.TID 0000.0001)                 3.460000000000000E-02
(PID.TID 0000.0001)     ;
(PID.TID 0000.0001) exf_scal_BulkCdn= /* Drag coefficient scaling factor [-] */
(PID.TID 0000.0001)                 1.000000000000000E+00
(PID.TID 0000.0001)     ;
(PID.TID 0000.0001) zolmin = /* minimum stability parameter [?] */
(PID.TID 0000.0001)                -1.000000000000000E+02
(PID.TID 0000.0001)     ;
(PID.TID 0000.0001) psim_fac = /* coef used in turbulent fluxes calculation [-] */
(PID.TID 0000.0001)                 5.000000000000000E+00
(PID.TID 0000.0001)     ;
(PID.TID 0000.0001) zref =  /* reference height [ m ] */
(PID.TID 0000.0001)                 1.000000000000000E+01
(PID.TID 0000.0001)     ;
(PID.TID 0000.0001) hu =  /* height of mean wind [ m ] */
(PID.TID 0000.0001)                 1.000000000000000E+01
(PID.TID 0000.0001)     ;
(PID.TID 0000.0001) ht =  /* height of mean temperature [ m ] */
(PID.TID 0000.0001)                 2.000000000000000E+00
(PID.TID 0000.0001)     ;
(PID.TID 0000.0001) hq =  /* height of mean spec.humidity [ m ] */
(PID.TID 0000.0001)                 2.000000000000000E+00
(PID.TID 0000.0001)     ;
(PID.TID 0000.0001) uMin = /* minimum wind speed [m/s] */
(PID.TID 0000.0001)                 5.000000000000000E-01
(PID.TID 0000.0001)     ;
(PID.TID 0000.0001) useStabilityFct_overIce= /* transfert Coeffs over sea-ice depend on stability */
(PID.TID 0000.0001)                   F
(PID.TID 0000.0001)     ;
(PID.TID 0000.0001) exf_iceCd = /* drag coefficient over sea-ice (fixed) [-] */
(PID.TID 0000.0001)                 1.630000000000000E-03
(PID.TID 0000.0001)     ;
(PID.TID 0000.0001) exf_iceCe = /* transfert coeff. over sea-ice, for Evap (fixed) [-] */
(PID.TID 0000.0001)                 1.630000000000000E-03
(PID.TID 0000.0001)     ;
(PID.TID 0000.0001) exf_iceCh = /* transfert coeff. over sea-ice, Sens.Heat.(fixed)[-] */
(PID.TID 0000.0001)                 1.630000000000000E-03
(PID.TID 0000.0001)     ;
(PID.TID 0000.0001) exf_albedo =  /* Sea-water albedo [-] */
(PID.TID 0000.0001)                 1.000000000000000E-01
(PID.TID 0000.0001)     ;
(PID.TID 0000.0001) useExfZenAlbedo = /* Sea-water albedo varies with zenith angle */
(PID.TID 0000.0001)                   F
(PID.TID 0000.0001)     ;
(PID.TID 0000.0001) select_ZenAlbedo = /* Sea-water albedo computation method */
(PID.TID 0000.0001)                       0
(PID.TID 0000.0001)     ;
(PID.TID 0000.0001) useExfZenIncoming = /* compute incoming solar radiation */
(PID.TID 0000.0001)                   F
(PID.TID 0000.0001)     ;
(PID.TID 0000.0001) ocean_emissivity = /* longwave ocean-surface emissivity [-] */
(PID.TID 0000.0001)                 9.700176366843034E-01
(PID.TID 0000.0001)     ;
(PID.TID 0000.0001) ice_emissivity = /* longwave seaice emissivity [-] */
(PID.TID 0000.0001)                 9.500000000000000E-01
(PID.TID 0000.0001)     ;
(PID.TID 0000.0001) snow_emissivity = /* longwave snow  emissivity [-] */
(PID.TID 0000.0001)                 9.500000000000000E-01
(PID.TID 0000.0001)     ;
(PID.TID 0000.0001) 
(PID.TID 0000.0001)  EXF main CPP flags:
(PID.TID 0000.0001) 
(PID.TID 0000.0001) // USE_EXF_INTERPOLATION:          NOT defined
(PID.TID 0000.0001) // ALLOW_ATM_TEMP:                     defined
(PID.TID 0000.0001) // ALLOW_ATM_WIND (useAtmWind):        defined
(PID.TID 0000.0001) // ALLOW_DOWNWARD_RADIATION:           defined
(PID.TID 0000.0001) // ALLOW_BULKFORMULAE:                 defined
(PID.TID 0000.0001) 
(PID.TID 0000.0001)    Net shortwave flux forcing starts at                0.
(PID.TID 0000.0001)    Net shortwave flux forcing period is                0.
(PID.TID 0000.0001)    Net shortwave flux forcing is read from file:
(PID.TID 0000.0001)    >>    <<
(PID.TID 0000.0001) 
(PID.TID 0000.0001)    Zonal wind forcing starts at                          0.
(PID.TID 0000.0001)    Zonal wind forcing period is                          0.
(PID.TID 0000.0001)    Zonal wind forcing is read from file:
(PID.TID 0000.0001)    >>    <<
(PID.TID 0000.0001) 
(PID.TID 0000.0001)    Meridional wind forcing starts at                     0.
(PID.TID 0000.0001)    Meridional wind forcing period is                     0.
(PID.TID 0000.0001)    Meridional wind forcing is read from file:
(PID.TID 0000.0001)    >>    <<
(PID.TID 0000.0001) 
(PID.TID 0000.0001)    Atmospheric temperature starts at                     0.
(PID.TID 0000.0001)    Atmospheric temperature period is                     0.
(PID.TID 0000.0001)    Atmospheric temperature is read from file:
(PID.TID 0000.0001)    >>    <<
(PID.TID 0000.0001) 
(PID.TID 0000.0001)    Atmospheric specific humidity starts at               0.
(PID.TID 0000.0001)    Atmospheric specific humidity period is               0.
(PID.TID 0000.0001)    Atmospheric specific humidity is read from file:
(PID.TID 0000.0001)    >>    <<
(PID.TID 0000.0001) 
(PID.TID 0000.0001)    Net longwave flux forcing starts at                 0.
(PID.TID 0000.0001)    Net longwave flux forcing period is                 0.
(PID.TID 0000.0001)    Net longwave flux forcing is read from file:
(PID.TID 0000.0001)    >>    <<
(PID.TID 0000.0001) 
(PID.TID 0000.0001)    Precipitation data set starts at                      0.
(PID.TID 0000.0001)    Precipitation data period is                          0.
(PID.TID 0000.0001)    Precipitation data is read from file:
(PID.TID 0000.0001)    >>    <<
(PID.TID 0000.0001) 
(PID.TID 0000.0001) // EXF_READ_EVAP:                  NOT defined
(PID.TID 0000.0001) 
(PID.TID 0000.0001) // ALLOW_RUNOFF:                       defined
(PID.TID 0000.0001)    Runoff starts at               0.
(PID.TID 0000.0001)    Runoff period is               0.
(PID.TID 0000.0001)    Runoff is read from file:
(PID.TID 0000.0001)    >>    <<
(PID.TID 0000.0001) // ALLOW_RUNOFTEMP:                NOT defined
(PID.TID 0000.0001) 
(PID.TID 0000.0001)    Downward shortwave flux forcing starts at                0.
(PID.TID 0000.0001)    Downward shortwave flux forcing period is                0.
(PID.TID 0000.0001)    Downward shortwave flux forcing is read from file:
(PID.TID 0000.0001)    >>    <<
(PID.TID 0000.0001) 
(PID.TID 0000.0001)    Downward longwave flux forcing starts at                 0.
(PID.TID 0000.0001)    Downward longwave flux forcing period is                 0.
(PID.TID 0000.0001)    Downward longwave flux forcing is read from file:
(PID.TID 0000.0001)    >>    <<
(PID.TID 0000.0001) 
(PID.TID 0000.0001)    Atmospheric pressure forcing starts at                0.
(PID.TID 0000.0001)    Atmospheric pressure forcing period is                0.
(PID.TID 0000.0001)    Atmospheric pressureforcing is read from file:
(PID.TID 0000.0001)    >>    <<
(PID.TID 0000.0001) 
(PID.TID 0000.0001)    fractional ice-covered area MASK starts at                0.
(PID.TID 0000.0001)    fractional ice-covered area MASK period is                0.
(PID.TID 0000.0001)    fractional ice-covered area MASK is read from file:
(PID.TID 0000.0001)    >>    <<
(PID.TID 0000.0001) 
(PID.TID 0000.0001) // =======================================================
(PID.TID 0000.0001) // External forcing (EXF) climatology configuration :
(PID.TID 0000.0001) // =======================================================
(PID.TID 0000.0001) 
(PID.TID 0000.0001) // ALLOW_CLIMSST_RELAXATION:       NOT defined
(PID.TID 0000.0001) // ALLOW_CLIMSSS_RELAXATION:       NOT defined
(PID.TID 0000.0001) 
(PID.TID 0000.0001) // =======================================================
(PID.TID 0000.0001) // External forcing (EXF) configuration  >>> END <<<
(PID.TID 0000.0001) // =======================================================
(PID.TID 0000.0001) 
(PID.TID 0000.0001) GUD_RANDOM_INIT: port_rand               56   0.3052905000000000
(PID.TID 0000.0001)  GUD_INIT_FIXED: opening data.traits
(PID.TID 0000.0001)  OPEN_COPY_DATA_FILE: opening file data.traits
(PID.TID 0000.0001) // =======================================================
(PID.TID 0000.0001) // Removing comments from "data.traits"
(PID.TID 0000.0001) // =======================================================
(PID.TID 0000.0001)    1  &GUD_TRAITS
(PID.TID 0000.0001)    2  EXPORTFRAC(25:26)= 2*.2,
(PID.TID 0000.0001)    3
(PID.TID 0000.0001)    4  PALAT=  1444*0.0 ,
(PID.TID 0000.0001)    5  PALAT(  1,25)=  1.0000000000000000e+00,
(PID.TID 0000.0001)    6  PALAT(  2,26)=  1.0000000000000000e+00,
(PID.TID 0000.0001)    7  PALAT(  3,27)=  1.0000000000000000e+00,
(PID.TID 0000.0001)    8  PALAT(  4,28)=  1.0000000000000000e+00,
(PID.TID 0000.0001)    9  PALAT(  5,29)=  1.0000000000000000e+00,
(PID.TID 0000.0001)   10  PALAT(  6,29)=  1.0000000000000000e+00,
(PID.TID 0000.0001)   11  PALAT(  7,30)=  1.0000000000000000e+00,
(PID.TID 0000.0001)   12  PALAT(  8,30)=  1.0000000000000000e+00,
(PID.TID 0000.0001)   13  PALAT(  9,30)=  1.0000000000000000e+00,
(PID.TID 0000.0001)   14  PALAT( 10,31)=  1.0000000000000000e+00,
(PID.TID 0000.0001)   15  PALAT( 11,31)=  1.0000000000000000e+00,
(PID.TID 0000.0001)   16  PALAT( 12,31)=  1.0000000000000000e+00,
(PID.TID 0000.0001)   17  PALAT( 13,32)=  1.0000000000000000e+00,
(PID.TID 0000.0001)   18  PALAT( 14,32)=  1.0000000000000000e+00,
(PID.TID 0000.0001)   19  PALAT( 15,32)=  1.0000000000000000e+00,
(PID.TID 0000.0001)   20  PALAT( 16,33)=  1.0000000000000000e+00,
(PID.TID 0000.0001)   21  PALAT( 17,33)=  1.0000000000000000e+00,
(PID.TID 0000.0001)   22  PALAT( 18,33)=  1.0000000000000000e+00,
(PID.TID 0000.0001)   23  PALAT( 19,34)=  1.0000000000000000e+00,
(PID.TID 0000.0001)   24  PALAT( 20,34)=  1.0000000000000000e+00,
(PID.TID 0000.0001)   25  PALAT( 21,35)=  1.0000000000000000e+00,
(PID.TID 0000.0001)   26  PALAT( 22,36)=  1.0000000000000000e+00,
(PID.TID 0000.0001)   27  PALAT( 23,37)=  1.0000000000000000e+00,
(PID.TID 0000.0001)   28  PALAT( 24,38)=  1.0000000000000000e+00,
(PID.TID 0000.0001)   29  /
(PID.TID 0000.0001) // =======================================================
(PID.TID 0000.0001) // Parameter file "data.traits"
(PID.TID 0000.0001) // =======================================================
(PID.TID 0000.0001) > &GUD_TRAITS
(PID.TID 0000.0001) > EXPORTFRAC(25:26)= 2*.2,
(PID.TID 0000.0001) >
(PID.TID 0000.0001) > PALAT=  1444*0.0 ,
(PID.TID 0000.0001) > PALAT(  1,25)=  1.0000000000000000e+00,
(PID.TID 0000.0001) > PALAT(  2,26)=  1.0000000000000000e+00,
(PID.TID 0000.0001) > PALAT(  3,27)=  1.0000000000000000e+00,
(PID.TID 0000.0001) > PALAT(  4,28)=  1.0000000000000000e+00,
(PID.TID 0000.0001) > PALAT(  5,29)=  1.0000000000000000e+00,
(PID.TID 0000.0001) > PALAT(  6,29)=  1.0000000000000000e+00,
(PID.TID 0000.0001) > PALAT(  7,30)=  1.0000000000000000e+00,
(PID.TID 0000.0001) > PALAT(  8,30)=  1.0000000000000000e+00,
(PID.TID 0000.0001) > PALAT(  9,30)=  1.0000000000000000e+00,
(PID.TID 0000.0001) > PALAT( 10,31)=  1.0000000000000000e+00,
(PID.TID 0000.0001) > PALAT( 11,31)=  1.0000000000000000e+00,
(PID.TID 0000.0001) > PALAT( 12,31)=  1.0000000000000000e+00,
(PID.TID 0000.0001) > PALAT( 13,32)=  1.0000000000000000e+00,
(PID.TID 0000.0001) > PALAT( 14,32)=  1.0000000000000000e+00,
(PID.TID 0000.0001) > PALAT( 15,32)=  1.0000000000000000e+00,
(PID.TID 0000.0001) > PALAT( 16,33)=  1.0000000000000000e+00,
(PID.TID 0000.0001) > PALAT( 17,33)=  1.0000000000000000e+00,
(PID.TID 0000.0001) > PALAT( 18,33)=  1.0000000000000000e+00,
(PID.TID 0000.0001) > PALAT( 19,34)=  1.0000000000000000e+00,
(PID.TID 0000.0001) > PALAT( 20,34)=  1.0000000000000000e+00,
(PID.TID 0000.0001) > PALAT( 21,35)=  1.0000000000000000e+00,
(PID.TID 0000.0001) > PALAT( 22,36)=  1.0000000000000000e+00,
(PID.TID 0000.0001) > PALAT( 23,37)=  1.0000000000000000e+00,
(PID.TID 0000.0001) > PALAT( 24,38)=  1.0000000000000000e+00,
(PID.TID 0000.0001) > /
(PID.TID 0000.0001) 
(PID.TID 0000.0001)  ===================================
(PID.TID 0000.0001) ------------------------------------------------------------
(PID.TID 0000.0001) DIAGNOSTICS_SET_LEVELS: done
(PID.TID 0000.0001)  Total Nb of available Diagnostics: ndiagt=  1327
(PID.TID 0000.0001)  write list of available Diagnostics to file: available_diagnostics.log
(PID.TID 0000.0001) SETDIAG: Allocate 23 x  1 Levels for Diagnostic #   179 TRAC01
(PID.TID 0000.0001) SETDIAG: Allocate 23 x  1 Levels for Diagnostic #   192 TRAC02
(PID.TID 0000.0001) SETDIAG: Allocate 23 x  1 Levels for Diagnostic #   205 TRAC03
(PID.TID 0000.0001) SETDIAG: Allocate 23 x  1 Levels for Diagnostic #   218 TRAC04
(PID.TID 0000.0001) SETDIAG: Allocate 23 x  1 Levels for Diagnostic #   231 TRAC05
(PID.TID 0000.0001) SETDIAG: Allocate 23 x  1 Levels for Diagnostic #   244 TRAC06
(PID.TID 0000.0001) SETDIAG: Allocate 23 x  1 Levels for Diagnostic #   257 TRAC07
(PID.TID 0000.0001) SETDIAG: Allocate 23 x  1 Levels for Diagnostic #   270 TRAC08
(PID.TID 0000.0001) SETDIAG: Allocate 23 x  1 Levels for Diagnostic #   283 TRAC09
(PID.TID 0000.0001) SETDIAG: Allocate 23 x  1 Levels for Diagnostic #   296 TRAC10
(PID.TID 0000.0001) SETDIAG: Allocate 23 x  1 Levels for Diagnostic #   309 TRAC11
(PID.TID 0000.0001) SETDIAG: Allocate 23 x  1 Levels for Diagnostic #   322 TRAC12
(PID.TID 0000.0001) SETDIAG: Allocate 23 x  1 Levels for Diagnostic #   335 TRAC13
(PID.TID 0000.0001) SETDIAG: Allocate 23 x  1 Levels for Diagnostic #   348 TRAC14
(PID.TID 0000.0001) SETDIAG: Allocate 23 x  1 Levels for Diagnostic #   361 TRAC15
(PID.TID 0000.0001) SETDIAG: Allocate 23 x  1 Levels for Diagnostic #   374 TRAC16
(PID.TID 0000.0001) SETDIAG: Allocate 23 x  1 Levels for Diagnostic #   387 TRAC17
(PID.TID 0000.0001) SETDIAG: Allocate 23 x  1 Levels for Diagnostic #   400 TRAC18
(PID.TID 0000.0001) SETDIAG: Allocate 23 x  1 Levels for Diagnostic #   413 TRAC19
(PID.TID 0000.0001) SETDIAG: Allocate 23 x  1 Levels for Diagnostic #   426 TRAC20
(PID.TID 0000.0001) SETDIAG: Allocate 23 x  1 Levels for Diagnostic #   439 TRAC21
(PID.TID 0000.0001) SETDIAG: Allocate 23 x  1 Levels for Diagnostic #   452 TRAC22
(PID.TID 0000.0001) SETDIAG: Allocate 23 x  1 Levels for Diagnostic #   465 TRAC23
(PID.TID 0000.0001) SETDIAG: Allocate 23 x  1 Levels for Diagnostic #   478 TRAC24
(PID.TID 0000.0001) SETDIAG: Allocate 23 x  1 Levels for Diagnostic #   491 TRAC25
(PID.TID 0000.0001) SETDIAG: Allocate 23 x  1 Levels for Diagnostic #   504 TRAC26
(PID.TID 0000.0001) SETDIAG: Allocate 23 x  1 Levels for Diagnostic #   517 TRAC27
(PID.TID 0000.0001) SETDIAG: Allocate 23 x  1 Levels for Diagnostic #   530 TRAC28
(PID.TID 0000.0001) SETDIAG: Allocate 23 x  1 Levels for Diagnostic #   543 TRAC29
(PID.TID 0000.0001) SETDIAG: Allocate 23 x  1 Levels for Diagnostic #   556 TRAC30
(PID.TID 0000.0001) SETDIAG: Allocate 23 x  1 Levels for Diagnostic #   569 TRAC31
(PID.TID 0000.0001) SETDIAG: Allocate 23 x  1 Levels for Diagnostic #   582 TRAC32
(PID.TID 0000.0001) SETDIAG: Allocate 23 x  1 Levels for Diagnostic #   595 TRAC33
(PID.TID 0000.0001) SETDIAG: Allocate 23 x  1 Levels for Diagnostic #   608 TRAC34
(PID.TID 0000.0001) SETDIAG: Allocate 23 x  1 Levels for Diagnostic #   621 TRAC35
(PID.TID 0000.0001) SETDIAG: Allocate 23 x  1 Levels for Diagnostic #   634 TRAC36
(PID.TID 0000.0001) SETDIAG: Allocate 23 x  1 Levels for Diagnostic #   647 TRAC37
(PID.TID 0000.0001) SETDIAG: Allocate 23 x  1 Levels for Diagnostic #   660 TRAC38
(PID.TID 0000.0001) SETDIAG: Allocate 23 x  1 Levels for Diagnostic #   673 TRAC39
(PID.TID 0000.0001) SETDIAG: Allocate 23 x  1 Levels for Diagnostic #   686 TRAC40
(PID.TID 0000.0001) SETDIAG: Allocate 23 x  1 Levels for Diagnostic #   699 TRAC41
(PID.TID 0000.0001) SETDIAG: Allocate 23 x  1 Levels for Diagnostic #   712 TRAC42
(PID.TID 0000.0001) SETDIAG: Allocate 23 x  1 Levels for Diagnostic #   725 TRAC43
(PID.TID 0000.0001) SETDIAG: Allocate 23 x  1 Levels for Diagnostic #   738 TRAC44
(PID.TID 0000.0001) SETDIAG: Allocate 23 x  1 Levels for Diagnostic #   751 TRAC45
(PID.TID 0000.0001) SETDIAG: Allocate 23 x  1 Levels for Diagnostic #   764 TRAC46
(PID.TID 0000.0001) SETDIAG: Allocate 23 x  1 Levels for Diagnostic #   777 TRAC47
(PID.TID 0000.0001) SETDIAG: Allocate 23 x  1 Levels for Diagnostic #   790 TRAC48
(PID.TID 0000.0001) SETDIAG: Allocate 23 x  1 Levels for Diagnostic #   803 TRAC49
(PID.TID 0000.0001) SETDIAG: Allocate 23 x  1 Levels for Diagnostic #   816 TRAC50
(PID.TID 0000.0001) SETDIAG: Allocate 23 x  1 Levels for Diagnostic #   829 TRAC51
(PID.TID 0000.0001) SETDIAG: Allocate 23 x  1 Levels for Diagnostic #   842 TRAC52
(PID.TID 0000.0001) SETDIAG: Allocate 23 x  1 Levels for Diagnostic #   855 TRAC53
(PID.TID 0000.0001) SETDIAG: Allocate 23 x  1 Levels for Diagnostic #   868 TRAC54
(PID.TID 0000.0001) SETDIAG: Allocate 23 x  1 Levels for Diagnostic #   881 TRAC55
(PID.TID 0000.0001) SETDIAG: Allocate 23 x  1 Levels for Diagnostic #   894 TRAC56
(PID.TID 0000.0001) SETDIAG: Allocate 23 x  1 Levels for Diagnostic #   907 TRAC57
(PID.TID 0000.0001) SETDIAG: Allocate 23 x  1 Levels for Diagnostic #   920 TRAC58
(PID.TID 0000.0001) SETDIAG: Allocate 23 x  1 Levels for Diagnostic #   933 TRAC59
(PID.TID 0000.0001) SETDIAG: Allocate 23 x  1 Levels for Diagnostic #   946 TRAC60
(PID.TID 0000.0001) SETDIAG: Allocate 23 x  1 Levels for Diagnostic #   959 TRAC61
(PID.TID 0000.0001) SETDIAG: Allocate 23 x  1 Levels for Diagnostic #   972 TRAC62
(PID.TID 0000.0001) SETDIAG: Allocate 23 x  1 Levels for Diagnostic #   985 TRAC63
(PID.TID 0000.0001) SETDIAG: Allocate 23 x  1 Levels for Diagnostic #   998 TRAC64
(PID.TID 0000.0001) SETDIAG: Allocate 23 x  1 Levels for Diagnostic #  1011 TRAC65
(PID.TID 0000.0001) SETDIAG: Allocate 23 x  1 Levels for Diagnostic #  1024 TRAC66
(PID.TID 0000.0001) SETDIAG: Allocate 23 x  1 Levels for Diagnostic #  1037 TRAC67
(PID.TID 0000.0001) SETDIAG: Allocate 23 x  1 Levels for Diagnostic #  1050 TRAC68
(PID.TID 0000.0001) SETDIAG: Allocate 23 x  1 Levels for Diagnostic #  1063 TRAC69
(PID.TID 0000.0001) SETDIAG: Allocate 23 x  1 Levels for Diagnostic #  1076 TRAC70
(PID.TID 0000.0001) SETDIAG: Allocate 23 x  1 Levels for Diagnostic #  1089 TRAC71
(PID.TID 0000.0001) SETDIAG: Allocate 23 x  1 Levels for Diagnostic #  1102 TRAC72
(PID.TID 0000.0001) SETDIAG: Allocate 23 x  1 Levels for Diagnostic #  1115 TRAC73
(PID.TID 0000.0001) SETDIAG: Allocate 23 x  1 Levels for Diagnostic #  1128 TRAC74
(PID.TID 0000.0001) SETDIAG: Allocate 23 x  1 Levels for Diagnostic #  1141 TRAC75
(PID.TID 0000.0001) SETDIAG: Allocate 23 x  1 Levels for Diagnostic #  1154 TRAC76
(PID.TID 0000.0001) SETDIAG: Allocate 23 x  1 Levels for Diagnostic #  1167 TRAC77
(PID.TID 0000.0001) SETDIAG: Allocate 23 x  1 Levels for Diagnostic #  1180 TRAC78
(PID.TID 0000.0001) SETDIAG: Allocate 23 x  1 Levels for Diagnostic #  1193 TRAC79
(PID.TID 0000.0001) SETDIAG: Allocate 23 x  1 Levels for Diagnostic #  1206 TRAC80
(PID.TID 0000.0001) SETDIAG: Allocate 23 x  1 Levels for Diagnostic #  1219 TRAC81
(PID.TID 0000.0001) SETDIAG: Allocate 23 x  1 Levels for Diagnostic #  1240 PAR01
(PID.TID 0000.0001) SETDIAG: Allocate 23 x  1 Levels for Diagnostic #  1233 PP
(PID.TID 0000.0001) SETDIAG: Allocate 23 x  1 Levels for Diagnostic #  1234 Nfix
(PID.TID 0000.0001) SETDIAG: Allocate 23 x  1 Levels for Diagnostic #  1235 Denit
(PID.TID 0000.0001)   space allocated for all diagnostics:    1955 levels
(PID.TID 0000.0001) DIAGNOSTICS_SET_POINTERS: Set levels for Outp.Stream: gud
(PID.TID 0000.0001)  Levels:       1.   2.   3.   4.   5.   6.   7.   8.   9.  10.  11.  12.  13.  14.  15.  16.  17.  18.  19.  20.
(PID.TID 0000.0001)  Levels:      21.  22.  23.
(PID.TID 0000.0001) DIAGNOSTICS_SET_POINTERS: done
(PID.TID 0000.0001) ------------------------------------------------------------
(PID.TID 0000.0001) DIAGSTATS_SET_REGIONS: define no region
(PID.TID 0000.0001) ------------------------------------------------------------
(PID.TID 0000.0001) SETDIAG: Allocate 23 Levels for Stats-Diag #  1233 PP
(PID.TID 0000.0001) SETDIAG: Allocate 23 Levels for Stats-Diag #  1234 Nfix
(PID.TID 0000.0001) SETDIAG: Allocate 23 Levels for Stats-Diag #  1235 Denit
(PID.TID 0000.0001)   space allocated for all stats-diags:      69 levels
(PID.TID 0000.0001) DIAGSTATS_SET_POINTERS: done
(PID.TID 0000.0001) ------------------------------------------------------------
(PID.TID 0000.0001) DIAGSTATS_INI_IO: open file: statsPP.0000000000.txt , unit=     9
(PID.TID 0000.0001) DIAGSTATS_INI_IO: open file: statsNfix.0000000000.txt , unit=    10
(PID.TID 0000.0001) DIAGSTATS_INI_IO: open file: statsDenit.0000000000.txt , unit=    16
(PID.TID 0000.0001) %MON fCori_max                    =   1.4340032469286622E-04
(PID.TID 0000.0001) %MON fCori_min                    =  -1.4340032469286622E-04
(PID.TID 0000.0001) %MON fCori_mean                   =  -4.7512148536475886E-19
(PID.TID 0000.0001) %MON fCori_sd                     =   9.6604363594752368E-05
(PID.TID 0000.0001) %MON fCoriG_max                   =   1.4316293338671472E-04
(PID.TID 0000.0001) %MON fCoriG_min                   =  -1.4362679550909542E-04
(PID.TID 0000.0001) %MON fCoriG_mean                  =  -8.9766747193207384E-07
(PID.TID 0000.0001) %MON fCoriG_sd                    =   9.6601219725586662E-05
(PID.TID 0000.0001) %MON fCoriCos_max                 =   1.4583691710542328E-04
(PID.TID 0000.0001) %MON fCoriCos_min                 =   2.6577679221447745E-05
(PID.TID 0000.0001) %MON fCoriCos_mean                =   1.0286642071176022E-04
(PID.TID 0000.0001) %MON fCoriCos_sd                  =   3.6825569638793567E-05
(PID.TID 0000.0001) INI_CG2D: CG2D normalisation factor =  5.6948601716296077E-05
(PID.TID 0000.0001) 
(PID.TID 0000.0001) // =======================================================
(PID.TID 0000.0001) // Model configuration
(PID.TID 0000.0001) // =======================================================
(PID.TID 0000.0001) //
(PID.TID 0000.0001) // "Physical" paramters ( PARM01 in namelist )
(PID.TID 0000.0001) //
(PID.TID 0000.0001) buoyancyRelation = /* Type of relation to get Buoyancy */
(PID.TID 0000.0001)               'OCEANIC'
(PID.TID 0000.0001)     ;
(PID.TID 0000.0001) fluidIsAir   =  /* fluid major constituent is Air */
(PID.TID 0000.0001)                   F
(PID.TID 0000.0001)     ;
(PID.TID 0000.0001) fluidIsWater =  /* fluid major constituent is Water */
(PID.TID 0000.0001)                   T
(PID.TID 0000.0001)     ;
(PID.TID 0000.0001) usingPCoords =  /* use p (or p*) vertical coordinate */
(PID.TID 0000.0001)                   F
(PID.TID 0000.0001)     ;
(PID.TID 0000.0001) usingZCoords =  /* use z (or z*) vertical coordinate */
(PID.TID 0000.0001)                   T
(PID.TID 0000.0001)     ;
(PID.TID 0000.0001) tRef =   /* Reference temperature profile ( oC or K ) */
(PID.TID 0000.0001)                 2.400000000000000E+01,      /* K =  1 */
(PID.TID 0000.0001)                 2.300000000000000E+01,      /* K =  2 */
(PID.TID 0000.0001)                 2.200000000000000E+01,      /* K =  3 */
(PID.TID 0000.0001)                 2.100000000000000E+01,      /* K =  4 */
(PID.TID 0000.0001)                 2.000000000000000E+01,      /* K =  5 */
(PID.TID 0000.0001)                 1.900000000000000E+01,      /* K =  6 */
(PID.TID 0000.0001)                 1.800000000000000E+01,      /* K =  7 */
(PID.TID 0000.0001)                 1.700000000000000E+01,      /* K =  8 */
(PID.TID 0000.0001)                 1.600000000000000E+01,      /* K =  9 */
(PID.TID 0000.0001)                 1.500000000000000E+01,      /* K = 10 */
(PID.TID 0000.0001)                 1.400000000000000E+01,      /* K = 11 */
(PID.TID 0000.0001)                 1.300000000000000E+01,      /* K = 12 */
(PID.TID 0000.0001)                 1.200000000000000E+01,      /* K = 13 */
(PID.TID 0000.0001)                 1.100000000000000E+01,      /* K = 14 */
(PID.TID 0000.0001)                 1.000000000000000E+01,      /* K = 15 */
(PID.TID 0000.0001)                 9.000000000000000E+00,      /* K = 16 */
(PID.TID 0000.0001)                 8.000000000000000E+00,      /* K = 17 */
(PID.TID 0000.0001)                 7.000000000000000E+00,      /* K = 18 */
(PID.TID 0000.0001)                 6.000000000000000E+00,      /* K = 19 */
(PID.TID 0000.0001)                 5.000000000000000E+00,      /* K = 20 */
(PID.TID 0000.0001)                 4.000000000000000E+00,      /* K = 21 */
(PID.TID 0000.0001)                 3.000000000000000E+00,      /* K = 22 */
(PID.TID 0000.0001)                 2.000000000000000E+00       /* K = 23 */
(PID.TID 0000.0001)     ;
(PID.TID 0000.0001) sRef =   /* Reference salinity profile ( psu ) */
(PID.TID 0000.0001)                 3.465000000000000E+01,      /* K =  1 */
(PID.TID 0000.0001)                 3.475000000000000E+01,      /* K =  2 */
(PID.TID 0000.0001)                 3.482000000000000E+01,      /* K =  3 */
(PID.TID 0000.0001)                 3.487000000000000E+01,      /* K =  4 */
(PID.TID 0000.0001)     2 @  3.490000000000000E+01,             /* K =  5:  6 */
(PID.TID 0000.0001)                 3.486000000000000E+01,      /* K =  7 */
(PID.TID 0000.0001)                 3.478000000000000E+01,      /* K =  8 */
(PID.TID 0000.0001)                 3.469000000000000E+01,      /* K =  9 */
(PID.TID 0000.0001)                 3.460000000000000E+01,      /* K = 10 */
(PID.TID 0000.0001)                 3.458000000000000E+01,      /* K = 11 */
(PID.TID 0000.0001)                 3.462000000000000E+01,      /* K = 12 */
(PID.TID 0000.0001)                 3.468000000000000E+01,      /* K = 13 */
(PID.TID 0000.0001)                 3.472000000000000E+01,      /* K = 14 */
(PID.TID 0000.0001)                 3.473000000000000E+01,      /* K = 15 */
(PID.TID 0000.0001)                 3.474000000000000E+01,      /* K = 16 */
(PID.TID 0000.0001)     2 @  3.473000000000000E+01,             /* K = 17: 18 */
(PID.TID 0000.0001)     2 @  3.472000000000000E+01,             /* K = 19: 20 */
(PID.TID 0000.0001)                 3.471000000000000E+01,      /* K = 21 */
(PID.TID 0000.0001)                 3.470000000000000E+01,      /* K = 22 */
(PID.TID 0000.0001)                 3.469000000000000E+01       /* K = 23 */
(PID.TID 0000.0001)     ;
(PID.TID 0000.0001) useStrainTensionVisc= /* Use StrainTension Form of Viscous Operator */
(PID.TID 0000.0001)                   F
(PID.TID 0000.0001)     ;
(PID.TID 0000.0001) useVariableVisc = /* Use variable horizontal viscosity */
(PID.TID 0000.0001)                   F
(PID.TID 0000.0001)     ;
(PID.TID 0000.0001) useHarmonicVisc = /* Use harmonic horizontal viscosity */
(PID.TID 0000.0001)                   F
(PID.TID 0000.0001)     ;
(PID.TID 0000.0001) useBiharmonicVisc= /* Use biharmonic horiz.  viscosity */
(PID.TID 0000.0001)                   F
(PID.TID 0000.0001)     ;
(PID.TID 0000.0001) useSmag3D = /* Use isotropic 3-D Smagorinsky viscosity */
(PID.TID 0000.0001)                   F
(PID.TID 0000.0001)     ;
(PID.TID 0000.0001) viscAh  =   /* Lateral harmonic viscosity ( m^2/s ) */
(PID.TID 0000.0001)                 1.000000000000000E+04
(PID.TID 0000.0001)     ;
(PID.TID 0000.0001) viscA4  =   /* Lateral biharmonic viscosity ( m^4/s ) */
(PID.TID 0000.0001)                 0.000000000000000E+00
(PID.TID 0000.0001)     ;
(PID.TID 0000.0001) no_slip_sides =  /* Viscous BCs: No-slip sides */
(PID.TID 0000.0001)                   F
(PID.TID 0000.0001)     ;
(PID.TID 0000.0001) sideDragFactor = /* side-drag scaling factor (non-dim) */
(PID.TID 0000.0001)                 2.000000000000000E+00
(PID.TID 0000.0001)     ;
(PID.TID 0000.0001) viscArNr = /* vertical profile of vertical viscosity ( m^2/s )*/
(PID.TID 0000.0001)    23 @  1.000000000000000E-03              /* K =  1: 23 */
(PID.TID 0000.0001)     ;
(PID.TID 0000.0001) no_slip_bottom =  /* Viscous BCs: No-slip bottom */
(PID.TID 0000.0001)                   T
(PID.TID 0000.0001)     ;
(PID.TID 0000.0001) bottomDragLinear = /* linear bottom-drag coefficient ( m/s ) */
(PID.TID 0000.0001)                 0.000000000000000E+00
(PID.TID 0000.0001)     ;
(PID.TID 0000.0001) bottomDragQuadratic = /* quadratic bottom-drag coefficient (-) */
(PID.TID 0000.0001)                 0.000000000000000E+00
(PID.TID 0000.0001)     ;
(PID.TID 0000.0001) diffKhT =   /* Laplacian diffusion of heat laterally ( m^2/s ) */
(PID.TID 0000.0001)                 1.000000000000000E+02
(PID.TID 0000.0001)     ;
(PID.TID 0000.0001) diffK4T =   /* Biharmonic diffusion of heat laterally ( m^4/s ) */
(PID.TID 0000.0001)                 0.000000000000000E+00
(PID.TID 0000.0001)     ;
(PID.TID 0000.0001) diffKhS =   /* Laplacian diffusion of salt laterally ( m^2/s ) */
(PID.TID 0000.0001)                 1.000000000000000E+02
(PID.TID 0000.0001)     ;
(PID.TID 0000.0001) diffK4S =   /* Biharmonic diffusion of salt laterally ( m^4/s ) */
(PID.TID 0000.0001)                 0.000000000000000E+00
(PID.TID 0000.0001)     ;
(PID.TID 0000.0001) diffKrNrT = /* vertical profile of vertical diffusion of Temp ( m^2/s )*/
(PID.TID 0000.0001)    23 @  1.000000000000000E-05              /* K =  1: 23 */
(PID.TID 0000.0001)     ;
(PID.TID 0000.0001) diffKrNrS = /* vertical profile of vertical diffusion of Salt ( m^2/s )*/
(PID.TID 0000.0001)    23 @  1.000000000000000E-05              /* K =  1: 23 */
(PID.TID 0000.0001)     ;
(PID.TID 0000.0001) diffKrBL79surf = /* Surface diffusion for Bryan and Lewis 79 ( m^2/s ) */
(PID.TID 0000.0001)                 0.000000000000000E+00
(PID.TID 0000.0001)     ;
(PID.TID 0000.0001) diffKrBL79deep = /* Deep diffusion for Bryan and Lewis 1979 ( m^2/s ) */
(PID.TID 0000.0001)                 0.000000000000000E+00
(PID.TID 0000.0001)     ;
(PID.TID 0000.0001) diffKrBL79scl = /* Depth scale for Bryan and Lewis 1979 ( m ) */
(PID.TID 0000.0001)                 2.000000000000000E+02
(PID.TID 0000.0001)     ;
(PID.TID 0000.0001) diffKrBL79Ho = /* Turning depth for Bryan and Lewis 1979 ( m ) */
(PID.TID 0000.0001)                -2.000000000000000E+03
(PID.TID 0000.0001)     ;
(PID.TID 0000.0001) ivdc_kappa = /* Implicit Vertical Diffusivity for Convection ( m^2/s) */
(PID.TID 0000.0001)                 0.000000000000000E+00
(PID.TID 0000.0001)     ;
(PID.TID 0000.0001) hMixCriteria=  /* Criteria for mixed-layer diagnostic */
(PID.TID 0000.0001)                -8.000000000000000E-01
(PID.TID 0000.0001)     ;
(PID.TID 0000.0001) dRhoSmall =  /* Parameter for mixed-layer diagnostic */
(PID.TID 0000.0001)                 1.000000000000000E-06
(PID.TID 0000.0001)     ;
(PID.TID 0000.0001) hMixSmooth=  /* Smoothing parameter for mixed-layer diagnostic */
(PID.TID 0000.0001)                 0.000000000000000E+00
(PID.TID 0000.0001)     ;
(PID.TID 0000.0001) eosType =  /* Type of Equation of State */
(PID.TID 0000.0001)               'POLY3 '
(PID.TID 0000.0001)     ;
(PID.TID 0000.0001)   1  13.499  32.600  24.480  -0.201   0.771  -0.005  -0.002   0.000   0.000   0.000   0.000   0.000
(PID.TID 0000.0001)   2  13.498  32.600  24.525  -0.202   0.771  -0.005  -0.002   0.000   0.000   0.000   0.000   0.000
(PID.TID 0000.0001)   3  13.496  32.600  24.581  -0.202   0.771  -0.005  -0.002   0.000   0.000   0.000   0.000   0.000
(PID.TID 0000.0001)   4  13.494  32.600  24.660  -0.202   0.771  -0.005  -0.002   0.000   0.000   0.000   0.000   0.000
(PID.TID 0000.0001)   5  13.491  32.600  24.750  -0.203   0.771  -0.005  -0.002   0.000   0.000   0.000   0.000   0.000
(PID.TID 0000.0001)   6  13.488  32.600  24.851  -0.203   0.770  -0.005  -0.002   0.000   0.000   0.000   0.000   0.000
(PID.TID 0000.0001)   7  13.484  32.600  24.985  -0.204   0.770  -0.005  -0.002   0.000   0.000   0.000   0.000   0.000
(PID.TID 0000.0001)   8  13.478  32.600  25.176  -0.204   0.770  -0.005  -0.002   0.000   0.000   0.000   0.000   0.000
(PID.TID 0000.0001)   9  13.469  32.600  25.456  -0.205   0.769  -0.005  -0.002   0.000   0.000   0.000   0.000   0.000
(PID.TID 0000.0001)  10   8.467  35.150  28.748  -0.163   0.781  -0.005  -0.002   0.001   0.000   0.000   0.000   0.000
(PID.TID 0000.0001)  11   8.454  35.150  29.315  -0.166   0.780  -0.005  -0.002   0.001   0.000   0.000   0.000   0.000
(PID.TID 0000.0001)  12   5.946  34.900  30.300  -0.143   0.785  -0.006  -0.002   0.001   0.000   0.000   0.000   0.000
(PID.TID 0000.0001)  13   4.433  34.900  31.591  -0.132   0.786  -0.006  -0.003   0.000   0.000   0.000   0.000   0.000
(PID.TID 0000.0001)  14   3.909  34.750  32.966  -0.134   0.785  -0.006  -0.003   0.000   0.000   0.000   0.000   0.000
(PID.TID 0000.0001)  15   1.899  34.800  35.002  -0.121   0.787  -0.006  -0.003  -0.000   0.000   0.000   0.000   0.000
(PID.TID 0000.0001)  16   1.372  34.750  36.991  -0.127   0.785  -0.006  -0.003  -0.001   0.000   0.000   0.000   0.000
(PID.TID 0000.0001)  17   1.332  34.800  39.171  -0.140   0.782  -0.006  -0.003  -0.002   0.000   0.000   0.000   0.000
(PID.TID 0000.0001)  18   0.797  34.800  41.472  -0.147   0.779  -0.006  -0.003  -0.001   0.000   0.000   0.000  -0.000
(PID.TID 0000.0001)  19   0.749  34.800  43.682  -0.160   0.775  -0.005  -0.002  -0.002   0.000   0.000   0.000  -0.000
(PID.TID 0000.0001)  20   0.214  34.750  45.912  -0.168   0.772  -0.005  -0.002  -0.002   0.000   0.000   0.000   0.000
(PID.TID 0000.0001)  21   0.160  34.750  48.080  -0.181   0.768  -0.005  -0.002  -0.003   0.000   0.000  -0.000  -0.000
(PID.TID 0000.0001)  22   0.584  34.750  50.131  -0.197   0.763  -0.005  -0.002  -0.001   0.000   0.000   0.000   0.000
(PID.TID 0000.0001)  23   0.522  34.750  52.248  -0.209   0.760  -0.005  -0.002  -0.002   0.000   0.000   0.000  -0.000
(PID.TID 0000.0001) HeatCapacity_Cp =  /* Specific heat capacity ( J/kg/K ) */
(PID.TID 0000.0001)                 3.994000000000000E+03
(PID.TID 0000.0001)     ;
(PID.TID 0000.0001) celsius2K = /* 0 degree Celsius converted to Kelvin ( K ) */
(PID.TID 0000.0001)                 2.731500000000000E+02
(PID.TID 0000.0001)     ;
(PID.TID 0000.0001) rhoConst  = /* Reference density (Boussinesq)  ( kg/m^3 ) */
(PID.TID 0000.0001)                 9.998000000000000E+02
(PID.TID 0000.0001)     ;
(PID.TID 0000.0001) rhoFacC = /* normalized Reference density @ cell-Center (-) */
(PID.TID 0000.0001)    23 @  1.000000000000000E+00              /* K =  1: 23 */
(PID.TID 0000.0001)     ;
(PID.TID 0000.0001) rhoFacF = /* normalized Reference density @ W-Interface (-) */
(PID.TID 0000.0001)    24 @  1.000000000000000E+00              /* K =  1: 24 */
(PID.TID 0000.0001)     ;
(PID.TID 0000.0001) rhoConstFresh = /* Fresh-water reference density ( kg/m^3 ) */
(PID.TID 0000.0001)                 9.998000000000000E+02
(PID.TID 0000.0001)     ;
(PID.TID 0000.0001) gravity =   /* Gravitational acceleration ( m/s^2 ) */
(PID.TID 0000.0001)                 9.810000000000000E+00
(PID.TID 0000.0001)     ;
(PID.TID 0000.0001) gBaro =   /* Barotropic gravity ( m/s^2 ) */
(PID.TID 0000.0001)                 9.810000000000000E+00
(PID.TID 0000.0001)     ;
(PID.TID 0000.0001) rotationPeriod =   /* Rotation Period ( s ) */
(PID.TID 0000.0001)                 8.616400000000000E+04
(PID.TID 0000.0001)     ;
(PID.TID 0000.0001) omega =   /* Angular velocity ( rad/s ) */
(PID.TID 0000.0001)                 7.292123516990375E-05
(PID.TID 0000.0001)     ;
(PID.TID 0000.0001) f0 =   /* Reference coriolis parameter ( 1/s ) */
(PID.TID 0000.0001)                 1.000000000000000E-04
(PID.TID 0000.0001)     ;
(PID.TID 0000.0001) beta =   /* Beta ( 1/(m.s) ) */
(PID.TID 0000.0001)                 9.999999999999999E-12
(PID.TID 0000.0001)     ;
(PID.TID 0000.0001) fPrime =   /* Second coriolis parameter ( 1/s ) */
(PID.TID 0000.0001)                 0.000000000000000E+00
(PID.TID 0000.0001)     ;
(PID.TID 0000.0001) rigidLid =   /* Rigid lid on/off flag */
(PID.TID 0000.0001)                   F
(PID.TID 0000.0001)     ;
(PID.TID 0000.0001) implicitFreeSurface =   /* Implicit free surface on/off flag */
(PID.TID 0000.0001)                   T
(PID.TID 0000.0001)     ;
(PID.TID 0000.0001) freeSurfFac =   /* Implicit free surface factor */
(PID.TID 0000.0001)                 1.000000000000000E+00
(PID.TID 0000.0001)     ;
(PID.TID 0000.0001) implicSurfPress =  /* Surface Pressure implicit factor (0-1)*/
(PID.TID 0000.0001)                 1.000000000000000E+00
(PID.TID 0000.0001)     ;
(PID.TID 0000.0001) implicDiv2Dflow =  /* Barot. Flow Div. implicit factor (0-1)*/
(PID.TID 0000.0001)                 1.000000000000000E+00
(PID.TID 0000.0001)     ;
(PID.TID 0000.0001) uniformLin_PhiSurf = /* use uniform Bo_surf on/off flag*/
(PID.TID 0000.0001)                   T
(PID.TID 0000.0001)     ;
(PID.TID 0000.0001) uniformFreeSurfLev = /* free-surface level-index is uniform */
(PID.TID 0000.0001)                   T
(PID.TID 0000.0001)     ;
(PID.TID 0000.0001) hFacMin =   /* minimum partial cell factor (hFac) */
(PID.TID 0000.0001)                 1.000000000000000E+00
(PID.TID 0000.0001)     ;
(PID.TID 0000.0001) hFacMinDr = /* minimum partial cell thickness ( m) */
(PID.TID 0000.0001)                 0.000000000000000E+00
(PID.TID 0000.0001)     ;
(PID.TID 0000.0001) exactConserv =  /* Exact Volume Conservation on/off flag*/
(PID.TID 0000.0001)                   F
(PID.TID 0000.0001)     ;
(PID.TID 0000.0001) linFSConserveTr = /* Tracer correction for Lin Free Surface on/off flag*/
(PID.TID 0000.0001)                   F
(PID.TID 0000.0001)     ;
(PID.TID 0000.0001) nonlinFreeSurf = /* Non-linear Free Surf. options (-1,0,1,2,3)*/
(PID.TID 0000.0001)                       0
(PID.TID 0000.0001)      -1,0= Off ; 1,2,3= On, 2=+rescale gU,gV, 3=+update cg2d solv.
(PID.TID 0000.0001)     ;
(PID.TID 0000.0001) hFacInf =   /* lower threshold for hFac (nonlinFreeSurf only)*/
(PID.TID 0000.0001)                 2.000000000000000E-01
(PID.TID 0000.0001)     ;
(PID.TID 0000.0001) hFacSup =   /* upper threshold for hFac (nonlinFreeSurf only)*/
(PID.TID 0000.0001)                 2.000000000000000E+00
(PID.TID 0000.0001)     ;
(PID.TID 0000.0001) select_rStar = /* r* Vertical coord. options (=0 r coord.; >0 uses r*)*/
(PID.TID 0000.0001)                       0
(PID.TID 0000.0001)     ;
(PID.TID 0000.0001) useRealFreshWaterFlux = /* Real Fresh Water Flux on/off flag*/
(PID.TID 0000.0001)                   F
(PID.TID 0000.0001)     ;
(PID.TID 0000.0001) temp_EvPrRn = /* Temp. of Evap/Prec/R (UNSET=use local T)(oC)*/
(PID.TID 0000.0001)                 1.234567000000000E+05
(PID.TID 0000.0001)     ;
(PID.TID 0000.0001) salt_EvPrRn = /* Salin. of Evap/Prec/R (UNSET=use local S)(psu)*/
(PID.TID 0000.0001)                 0.000000000000000E+00
(PID.TID 0000.0001)     ;
(PID.TID 0000.0001) selectAddFluid = /* option for mass source/sink of fluid (=0: off) */
(PID.TID 0000.0001)                       0
(PID.TID 0000.0001)     ;
(PID.TID 0000.0001) temp_addMass = /* Temp. of addMass array (UNSET=use local T)(oC)*/
(PID.TID 0000.0001)                 1.234567000000000E+05
(PID.TID 0000.0001)     ;
(PID.TID 0000.0001) salt_addMass = /* Salin. of addMass array (UNSET=use local S)(psu)*/
(PID.TID 0000.0001)                 0.000000000000000E+00
(PID.TID 0000.0001)     ;
(PID.TID 0000.0001) convertFW2Salt = /* convert F.W. Flux to Salt Flux (-1=use local S)(psu)*/
(PID.TID 0000.0001)                 3.500000000000000E+01
(PID.TID 0000.0001)     ;
(PID.TID 0000.0001) use3Dsolver = /* use 3-D pressure solver on/off flag */
(PID.TID 0000.0001)                   F
(PID.TID 0000.0001)     ;
(PID.TID 0000.0001) nonHydrostatic =  /* Non-Hydrostatic on/off flag */
(PID.TID 0000.0001)                   F
(PID.TID 0000.0001)     ;
(PID.TID 0000.0001) nh_Am2 = /* Non-Hydrostatic terms scaling factor */
(PID.TID 0000.0001)                 1.000000000000000E+00
(PID.TID 0000.0001)     ;
(PID.TID 0000.0001) implicitNHPress = /* Non-Hyd Pressure implicit factor (0-1)*/
(PID.TID 0000.0001)                 1.000000000000000E+00
(PID.TID 0000.0001)     ;
(PID.TID 0000.0001) selectNHfreeSurf = /* Non-Hyd (free-)Surface option */
(PID.TID 0000.0001)                       0
(PID.TID 0000.0001)     ;
(PID.TID 0000.0001) quasiHydrostatic = /* Quasi-Hydrostatic on/off flag */
(PID.TID 0000.0001)                   F
(PID.TID 0000.0001)     ;
(PID.TID 0000.0001) calc_wVelocity = /* vertical velocity calculation on/off flag */
(PID.TID 0000.0001)                   F
(PID.TID 0000.0001)     ;
(PID.TID 0000.0001) momStepping =  /* Momentum equation on/off flag */
(PID.TID 0000.0001)                   F
(PID.TID 0000.0001)     ;
(PID.TID 0000.0001) vectorInvariantMomentum= /* Vector-Invariant Momentum on/off */
(PID.TID 0000.0001)                   F
(PID.TID 0000.0001)     ;
(PID.TID 0000.0001) momAdvection =  /* Momentum advection on/off flag */
(PID.TID 0000.0001)                   F
(PID.TID 0000.0001)     ;
(PID.TID 0000.0001) momViscosity =  /* Momentum viscosity on/off flag */
(PID.TID 0000.0001)                   F
(PID.TID 0000.0001)     ;
(PID.TID 0000.0001) momImplVertAdv= /* Momentum implicit vert. advection on/off*/
(PID.TID 0000.0001)                   F
(PID.TID 0000.0001)     ;
(PID.TID 0000.0001) implicitViscosity = /* Implicit viscosity on/off flag */
(PID.TID 0000.0001)                   F
(PID.TID 0000.0001)     ;
(PID.TID 0000.0001) metricTerms =  /* metric-Terms on/off flag */
(PID.TID 0000.0001)                   T
(PID.TID 0000.0001)     ;
(PID.TID 0000.0001) useNHMTerms = /* Non-Hydrostatic Metric-Terms on/off */
(PID.TID 0000.0001)                   F
(PID.TID 0000.0001)     ;
(PID.TID 0000.0001) selectCoriMap = /* Coriolis Map options (0,1,2,3)*/
(PID.TID 0000.0001)                       2
(PID.TID 0000.0001)     0= f-Plane ; 1= Beta-Plane ; 2= Spherical ; 3= read from file
(PID.TID 0000.0001)     ;
(PID.TID 0000.0001) use3dCoriolis = /* 3-D Coriolis on/off flag */
(PID.TID 0000.0001)                   F
(PID.TID 0000.0001)     ;
(PID.TID 0000.0001) useCoriolis =  /* Coriolis on/off flag */
(PID.TID 0000.0001)                   F
(PID.TID 0000.0001)     ;
(PID.TID 0000.0001) useCDscheme =  /* CD scheme on/off flag */
(PID.TID 0000.0001)                   F
(PID.TID 0000.0001)     ;
(PID.TID 0000.0001) useEnergyConservingCoriolis= /* Flx-Form Coriolis scheme flag */
(PID.TID 0000.0001)                   F
(PID.TID 0000.0001)     ;
(PID.TID 0000.0001) useJamartWetPoints= /* Coriolis WetPoints method flag */
(PID.TID 0000.0001)                   F
(PID.TID 0000.0001)     ;
(PID.TID 0000.0001) useJamartMomAdv= /* V.I Non-linear terms Jamart flag */
(PID.TID 0000.0001)                   F
(PID.TID 0000.0001)     ;
(PID.TID 0000.0001) useAbsVorticity= /* V.I Works with f+zeta in Coriolis */
(PID.TID 0000.0001)                   F
(PID.TID 0000.0001)     ;
(PID.TID 0000.0001) selectVortScheme= /* V.I Scheme selector for Vorticity-Term */
(PID.TID 0000.0001)               123456789
(PID.TID 0000.0001)    = 0 : enstrophy (Shallow-Water Eq.) conserving scheme by Sadourny, JAS 75
(PID.TID 0000.0001)    = 1 : same as 0 with modified hFac
(PID.TID 0000.0001)    = 2 : energy conserving scheme (used by Sadourny in JAS 75 paper)
(PID.TID 0000.0001)    = 3 : energy (general) and enstrophy (2D, nonDiv.) conserving scheme
(PID.TID 0000.0001)          from Sadourny (Burridge & Haseler, ECMWF Rep.4, 1977)
(PID.TID 0000.0001)     ;
(PID.TID 0000.0001) upwindVorticity= /* V.I Upwind bias vorticity flag */
(PID.TID 0000.0001)                   F
(PID.TID 0000.0001)     ;
(PID.TID 0000.0001) highOrderVorticity= /* V.I High order vort. advect. flag */
(PID.TID 0000.0001)                   F
(PID.TID 0000.0001)     ;
(PID.TID 0000.0001) upwindShear= /* V.I Upwind vertical Shear advection flag */
(PID.TID 0000.0001)                   F
(PID.TID 0000.0001)     ;
(PID.TID 0000.0001) selectKEscheme= /* V.I Kinetic Energy scheme selector */
(PID.TID 0000.0001)                       0
(PID.TID 0000.0001)     ;
(PID.TID 0000.0001) momForcing =  /* Momentum forcing on/off flag */
(PID.TID 0000.0001)                   F
(PID.TID 0000.0001)     ;
(PID.TID 0000.0001) momPressureForcing =  /* Momentum pressure term on/off flag */
(PID.TID 0000.0001)                   F
(PID.TID 0000.0001)     ;
(PID.TID 0000.0001) implicitIntGravWave= /* Implicit Internal Gravity Wave flag */
(PID.TID 0000.0001)                   F
(PID.TID 0000.0001)     ;
(PID.TID 0000.0001) staggerTimeStep =    /* Stagger time stepping on/off flag */
(PID.TID 0000.0001)                   F
(PID.TID 0000.0001)     ;
(PID.TID 0000.0001) doResetHFactors = /* reset thickness factors @ each time-step */
(PID.TID 0000.0001)                   F
(PID.TID 0000.0001)     ;
(PID.TID 0000.0001) multiDimAdvection =  /* enable/disable Multi-Dim Advection */
(PID.TID 0000.0001)                   T
(PID.TID 0000.0001)     ;
(PID.TID 0000.0001) useMultiDimAdvec =   /* Multi-Dim Advection is/is-not used */
(PID.TID 0000.0001)                   T
(PID.TID 0000.0001)     ;
(PID.TID 0000.0001) implicitDiffusion = /* Implicit Diffusion on/off flag */
(PID.TID 0000.0001)                   T
(PID.TID 0000.0001)     ;
(PID.TID 0000.0001) tempStepping =  /* Temperature equation on/off flag */
(PID.TID 0000.0001)                   F
(PID.TID 0000.0001)     ;
(PID.TID 0000.0001) tempAdvection = /* Temperature advection on/off flag */
(PID.TID 0000.0001)                   F
(PID.TID 0000.0001)     ;
(PID.TID 0000.0001) tempImplVertAdv = /* Temp. implicit vert. advection on/off */
(PID.TID 0000.0001)                   F
(PID.TID 0000.0001)     ;
(PID.TID 0000.0001) tempForcing  =  /* Temperature forcing on/off flag */
(PID.TID 0000.0001)                   F
(PID.TID 0000.0001)     ;
(PID.TID 0000.0001) doThetaClimRelax = /* apply SST relaxation on/off flag */
(PID.TID 0000.0001)                   F
(PID.TID 0000.0001)     ;
(PID.TID 0000.0001) tempIsActiveTr = /* Temp. is a dynamically Active Tracer */
(PID.TID 0000.0001)                   F
(PID.TID 0000.0001)     ;
(PID.TID 0000.0001) saltStepping =  /* Salinity equation on/off flag */
(PID.TID 0000.0001)                   F
(PID.TID 0000.0001)     ;
(PID.TID 0000.0001) saltAdvection = /* Salinity advection on/off flag */
(PID.TID 0000.0001)                   F
(PID.TID 0000.0001)     ;
(PID.TID 0000.0001) saltImplVertAdv = /* Sali. implicit vert. advection on/off */
(PID.TID 0000.0001)                   F
(PID.TID 0000.0001)     ;
(PID.TID 0000.0001) saltForcing  =  /* Salinity forcing on/off flag */
(PID.TID 0000.0001)                   F
(PID.TID 0000.0001)     ;
(PID.TID 0000.0001) doSaltClimRelax = /* apply SSS relaxation on/off flag */
(PID.TID 0000.0001)                   F
(PID.TID 0000.0001)     ;
(PID.TID 0000.0001) saltIsActiveTr = /* Salt  is a dynamically Active Tracer */
(PID.TID 0000.0001)                   F
(PID.TID 0000.0001)     ;
(PID.TID 0000.0001)  readBinaryPrec = /* Precision used for reading binary files */
(PID.TID 0000.0001)                      64
(PID.TID 0000.0001)     ;
(PID.TID 0000.0001) writeBinaryPrec = /* Precision used for writing binary files */
(PID.TID 0000.0001)                      64
(PID.TID 0000.0001)     ;
(PID.TID 0000.0001)  globalFiles = /* write "global" (=not per tile) files */
(PID.TID 0000.0001)                   F
(PID.TID 0000.0001)     ;
(PID.TID 0000.0001)  useSingleCpuIO = /* only master MPI process does I/O */
(PID.TID 0000.0001)                   T
(PID.TID 0000.0001)     ;
(PID.TID 0000.0001)  useSingleCpuInput = /* only master process reads input */
(PID.TID 0000.0001)                   T
(PID.TID 0000.0001)     ;
(PID.TID 0000.0001) /* debLev[*]  : level of debug & auxiliary message printing */
(PID.TID 0000.0001) debLevZero =  0 ; /* level of disabled aux. msg printing */
(PID.TID 0000.0001)    debLevA =  1 ; /* level of minimum  aux. msg printing */
(PID.TID 0000.0001)    debLevB =  2 ; /* level of low aux. print (report read-file opening)*/
(PID.TID 0000.0001)    debLevC =  3 ; /* level of moderate debug prt (most pkgs debug msg) */
(PID.TID 0000.0001)    debLevD =  4 ; /* level of enhanced debug prt (add DEBUG_STATS prt) */
(PID.TID 0000.0001)    debLevE =  5 ; /* level of extensive debug printing */
(PID.TID 0000.0001) debugLevel =  /* select debug printing level */
(PID.TID 0000.0001)                       2
(PID.TID 0000.0001)     ;
(PID.TID 0000.0001) //
(PID.TID 0000.0001) // Elliptic solver(s) paramters ( PARM02 in namelist )
(PID.TID 0000.0001) //
(PID.TID 0000.0001) cg2dMaxIters =   /* Upper limit on 2d con. grad iterations  */
(PID.TID 0000.0001)                     300
(PID.TID 0000.0001)     ;
(PID.TID 0000.0001) cg2dChkResFreq =   /* 2d con. grad convergence test frequency */
(PID.TID 0000.0001)                       1
(PID.TID 0000.0001)     ;
(PID.TID 0000.0001) cg2dUseMinResSol= /* use cg2d last-iter(=0) / min-resid.(=1) solution */
(PID.TID 0000.0001)                       0
(PID.TID 0000.0001)     ;
(PID.TID 0000.0001) cg2dTargetResidual =   /* 2d con. grad target residual  */
(PID.TID 0000.0001)                 1.000000000000000E-07
(PID.TID 0000.0001)     ;
(PID.TID 0000.0001) cg2dTargetResWunit =   /* CG2d target residual [W units] */
(PID.TID 0000.0001)                -1.000000000000000E+00
(PID.TID 0000.0001)     ;
(PID.TID 0000.0001) cg2dPreCondFreq =   /* Freq. for updating cg2d preconditioner */
(PID.TID 0000.0001)                       1
(PID.TID 0000.0001)     ;
(PID.TID 0000.0001) useSRCGSolver =  /* use single reduction CG solver(s) */
(PID.TID 0000.0001)                   F
(PID.TID 0000.0001)     ;
(PID.TID 0000.0001) printResidualFreq = /* Freq. for printing CG residual */
(PID.TID 0000.0001)                       0
(PID.TID 0000.0001)     ;
(PID.TID 0000.0001) //
(PID.TID 0000.0001) // Time stepping paramters ( PARM03 in namelist )
(PID.TID 0000.0001) //
(PID.TID 0000.0001) deltaTMom =   /* Momentum equation timestep ( s ) */
(PID.TID 0000.0001)                 1.080000000000000E+04
(PID.TID 0000.0001)     ;
(PID.TID 0000.0001) deltaTFreeSurf = /* FreeSurface equation timestep ( s ) */
(PID.TID 0000.0001)                 1.080000000000000E+04
(PID.TID 0000.0001)     ;
(PID.TID 0000.0001) dTtracerLev =  /* Tracer equation timestep ( s ) */
(PID.TID 0000.0001)    23 @  1.080000000000000E+04              /* K =  1: 23 */
(PID.TID 0000.0001)     ;
(PID.TID 0000.0001) deltaTClock  =   /* Model clock timestep ( s ) */
(PID.TID 0000.0001)                 1.080000000000000E+04
(PID.TID 0000.0001)     ;
(PID.TID 0000.0001) cAdjFreq =   /* Convective adjustment interval ( s ) */
(PID.TID 0000.0001)                 0.000000000000000E+00
(PID.TID 0000.0001)     ;
(PID.TID 0000.0001) momForcingOutAB = /* =1: take Momentum Forcing out of Adams-Bash. stepping */
(PID.TID 0000.0001)                       0
(PID.TID 0000.0001)     ;
(PID.TID 0000.0001) tracForcingOutAB = /* =1: take T,S,pTr Forcing out of Adams-Bash. stepping */
(PID.TID 0000.0001)                       0
(PID.TID 0000.0001)     ;
(PID.TID 0000.0001) momDissip_In_AB = /* put Dissipation Tendency in Adams-Bash. stepping */
(PID.TID 0000.0001)                   T
(PID.TID 0000.0001)     ;
(PID.TID 0000.0001) doAB_onGtGs = /* apply AB on Tendencies (rather than on T,S)*/
(PID.TID 0000.0001)                   T
(PID.TID 0000.0001)     ;
(PID.TID 0000.0001) abEps =   /* Adams-Bashforth-2 stabilizing weight */
(PID.TID 0000.0001)                 1.000000000000000E-01
(PID.TID 0000.0001)     ;
(PID.TID 0000.0001) pickupStrictlyMatch= /* stop if pickup do not strictly match */
(PID.TID 0000.0001)                   T
(PID.TID 0000.0001)     ;
(PID.TID 0000.0001) nIter0   =   /* Run starting timestep number */
(PID.TID 0000.0001)                       0
(PID.TID 0000.0001)     ;
(PID.TID 0000.0001) nTimeSteps = /* Number of timesteps */
(PID.TID 0000.0001)                       4
(PID.TID 0000.0001)     ;
(PID.TID 0000.0001) nEndIter =   /* Run ending timestep number */
(PID.TID 0000.0001)                       4
(PID.TID 0000.0001)     ;
(PID.TID 0000.0001) baseTime =   /* Model base time ( s ) */
(PID.TID 0000.0001)                 0.000000000000000E+00
(PID.TID 0000.0001)     ;
(PID.TID 0000.0001) startTime =  /* Run start time ( s ) */
(PID.TID 0000.0001)                 0.000000000000000E+00
(PID.TID 0000.0001)     ;
(PID.TID 0000.0001) endTime  =   /* Integration ending time ( s ) */
(PID.TID 0000.0001)                 4.320000000000000E+04
(PID.TID 0000.0001)     ;
(PID.TID 0000.0001) pChkPtFreq = /* Permanent restart/pickup file interval ( s ) */
(PID.TID 0000.0001)                 3.110400000000000E+07
(PID.TID 0000.0001)     ;
(PID.TID 0000.0001) chkPtFreq  = /* Rolling restart/pickup file interval ( s ) */
(PID.TID 0000.0001)                 3.110400000000000E+07
(PID.TID 0000.0001)     ;
(PID.TID 0000.0001) pickup_write_mdsio =   /* Model IO flag. */
(PID.TID 0000.0001)                   T
(PID.TID 0000.0001)     ;
(PID.TID 0000.0001) pickup_read_mdsio =   /* Model IO flag. */
(PID.TID 0000.0001)                   T
(PID.TID 0000.0001)     ;
(PID.TID 0000.0001) pickup_write_mnc =   /* Model IO flag. */
(PID.TID 0000.0001)                   F
(PID.TID 0000.0001)     ;
(PID.TID 0000.0001) pickup_read_mnc =   /* Model IO flag. */
(PID.TID 0000.0001)                   F
(PID.TID 0000.0001)     ;
(PID.TID 0000.0001) pickup_write_immed =   /* Model IO flag. */
(PID.TID 0000.0001)                   F
(PID.TID 0000.0001)     ;
(PID.TID 0000.0001) writePickupAtEnd =   /* Model IO flag. */
(PID.TID 0000.0001)                   T
(PID.TID 0000.0001)     ;
(PID.TID 0000.0001) dumpFreq =   /* Model state write out interval ( s ). */
(PID.TID 0000.0001)                 3.110400000000000E+07
(PID.TID 0000.0001)     ;
(PID.TID 0000.0001) dumpInitAndLast= /* write out Initial & Last iter. model state */
(PID.TID 0000.0001)                   T
(PID.TID 0000.0001)     ;
(PID.TID 0000.0001) snapshot_mdsio =   /* Model IO flag. */
(PID.TID 0000.0001)                   F
(PID.TID 0000.0001)     ;
(PID.TID 0000.0001) snapshot_mnc =   /* Model IO flag. */
(PID.TID 0000.0001)                   T
(PID.TID 0000.0001)     ;
(PID.TID 0000.0001) monitorFreq =   /* Monitor output interval ( s ). */
(PID.TID 0000.0001)                 1.000000000000000E+00
(PID.TID 0000.0001)     ;
(PID.TID 0000.0001) monitorSelect = /* select group of variables to monitor */
(PID.TID 0000.0001)                       3
(PID.TID 0000.0001)     ;
(PID.TID 0000.0001) monitor_stdio =   /* Model IO flag. */
(PID.TID 0000.0001)                   T
(PID.TID 0000.0001)     ;
(PID.TID 0000.0001) monitor_mnc =   /* Model IO flag. */
(PID.TID 0000.0001)                   F
(PID.TID 0000.0001)     ;
(PID.TID 0000.0001) externForcingPeriod =   /* forcing period (s) */
(PID.TID 0000.0001)                 2.592000000000000E+06
(PID.TID 0000.0001)     ;
(PID.TID 0000.0001) externForcingCycle =   /* period of the cyle (s). */
(PID.TID 0000.0001)                 3.110400000000000E+07
(PID.TID 0000.0001)     ;
(PID.TID 0000.0001) tauThetaClimRelax =   /* relaxation time scale (s) */
(PID.TID 0000.0001)                 0.000000000000000E+00
(PID.TID 0000.0001)     ;
(PID.TID 0000.0001) tauSaltClimRelax =   /* relaxation time scale (s) */
(PID.TID 0000.0001)                 0.000000000000000E+00
(PID.TID 0000.0001)     ;
(PID.TID 0000.0001) latBandClimRelax =   /* max. Lat. where relaxation */
(PID.TID 0000.0001)                 1.800000000000000E+02
(PID.TID 0000.0001)     ;
(PID.TID 0000.0001) //
(PID.TID 0000.0001) // Gridding paramters ( PARM04 in namelist )
(PID.TID 0000.0001) //
(PID.TID 0000.0001) usingCartesianGrid = /* Cartesian coordinates flag ( True/False ) */
(PID.TID 0000.0001)                   F
(PID.TID 0000.0001)     ;
(PID.TID 0000.0001) usingCylindricalGrid = /* Cylindrical coordinates flag ( True/False ) */
(PID.TID 0000.0001)                   F
(PID.TID 0000.0001)     ;
(PID.TID 0000.0001) usingSphericalPolarGrid = /* Spherical coordinates flag ( True/False ) */
(PID.TID 0000.0001)                   T
(PID.TID 0000.0001)     ;
(PID.TID 0000.0001) usingCurvilinearGrid = /* Curvilinear coordinates flag ( True/False ) */
(PID.TID 0000.0001)                   F
(PID.TID 0000.0001)     ;
(PID.TID 0000.0001) selectSigmaCoord = /* Hybrid-Sigma Vert. Coordinate option */
(PID.TID 0000.0001)                       0
(PID.TID 0000.0001)     ;
(PID.TID 0000.0001) Ro_SeaLevel = /* r(1) ( units of r ==  m ) */
(PID.TID 0000.0001)                 0.000000000000000E+00
(PID.TID 0000.0001)     ;
(PID.TID 0000.0001) rSigmaBnd = /* r/sigma transition ( units of r ==  m ) */
(PID.TID 0000.0001)                 1.234567000000000E+05
(PID.TID 0000.0001)     ;
(PID.TID 0000.0001) rkSign =   /* index orientation relative to vertical coordinate */
(PID.TID 0000.0001)                -1.000000000000000E+00
(PID.TID 0000.0001)     ;
(PID.TID 0000.0001) gravitySign = /* gravity orientation relative to vertical coordinate */
(PID.TID 0000.0001)                -1.000000000000000E+00
(PID.TID 0000.0001)     ;
(PID.TID 0000.0001) mass2rUnit = /* convert mass per unit area [kg/m2] to r-units [m] */
(PID.TID 0000.0001)                 1.000200040008002E-03
(PID.TID 0000.0001)     ;
(PID.TID 0000.0001) rUnit2mass = /* convert r-units [m] to mass per unit area [kg/m2] */
(PID.TID 0000.0001)                 9.998000000000000E+02
(PID.TID 0000.0001)     ;
(PID.TID 0000.0001) drC =   /* C spacing ( units of r ) */
(PID.TID 0000.0001)                 5.000000000000000E+00,      /* K =  1 */
(PID.TID 0000.0001)                 1.000000000000000E+01,      /* K =  2 */
(PID.TID 0000.0001)                 1.250000000000000E+01,      /* K =  3 */
(PID.TID 0000.0001)                 1.750000000000000E+01,      /* K =  4 */
(PID.TID 0000.0001)                 2.000000000000000E+01,      /* K =  5 */
(PID.TID 0000.0001)                 2.250000000000000E+01,      /* K =  6 */
(PID.TID 0000.0001)                 3.000000000000000E+01,      /* K =  7 */
(PID.TID 0000.0001)                 4.250000000000000E+01,      /* K =  8 */
(PID.TID 0000.0001)                 6.250000000000000E+01,      /* K =  9 */
(PID.TID 0000.0001)                 8.750000000000000E+01,      /* K = 10 */
(PID.TID 0000.0001)                 1.250000000000000E+02,      /* K = 11 */
(PID.TID 0000.0001)                 1.750000000000000E+02,      /* K = 12 */
(PID.TID 0000.0001)                 2.375000000000000E+02,      /* K = 13 */
(PID.TID 0000.0001)                 3.125000000000000E+02,      /* K = 14 */
(PID.TID 0000.0001)                 3.825000000000000E+02,      /* K = 15 */
(PID.TID 0000.0001)                 4.325000000000000E+02,      /* K = 16 */
(PID.TID 0000.0001)                 4.750000000000000E+02,      /* K = 17 */
(PID.TID 0000.0001)     6 @  5.000000000000000E+02,             /* K = 18: 23 */
(PID.TID 0000.0001)                 2.500000000000000E+02       /* K = 24 */
(PID.TID 0000.0001)     ;
(PID.TID 0000.0001) drF =   /* W spacing ( units of r ) */
(PID.TID 0000.0001)     2 @  1.000000000000000E+01,             /* K =  1:  2 */
(PID.TID 0000.0001)                 1.500000000000000E+01,      /* K =  3 */
(PID.TID 0000.0001)     2 @  2.000000000000000E+01,             /* K =  4:  5 */
(PID.TID 0000.0001)                 2.500000000000000E+01,      /* K =  6 */
(PID.TID 0000.0001)                 3.500000000000000E+01,      /* K =  7 */
(PID.TID 0000.0001)                 5.000000000000000E+01,      /* K =  8 */
(PID.TID 0000.0001)                 7.500000000000000E+01,      /* K =  9 */
(PID.TID 0000.0001)                 1.000000000000000E+02,      /* K = 10 */
(PID.TID 0000.0001)                 1.500000000000000E+02,      /* K = 11 */
(PID.TID 0000.0001)                 2.000000000000000E+02,      /* K = 12 */
(PID.TID 0000.0001)                 2.750000000000000E+02,      /* K = 13 */
(PID.TID 0000.0001)                 3.500000000000000E+02,      /* K = 14 */
(PID.TID 0000.0001)                 4.150000000000000E+02,      /* K = 15 */
(PID.TID 0000.0001)                 4.500000000000000E+02,      /* K = 16 */
(PID.TID 0000.0001)     7 @  5.000000000000000E+02              /* K = 17: 23 */
(PID.TID 0000.0001)     ;
(PID.TID 0000.0001) delX = /* U spacing ( m - cartesian, degrees - spherical ) */
(PID.TID 0000.0001)   360 @  1.000000000000000E+00              /* I =  1:360 */
(PID.TID 0000.0001)     ;
(PID.TID 0000.0001) delY = /* V spacing ( m - cartesian, degrees - spherical ) */
(PID.TID 0000.0001)   160 @  1.000000000000000E+00              /* J =  1:160 */
(PID.TID 0000.0001)     ;
(PID.TID 0000.0001) xgOrigin = /* X-axis origin of West  edge (cartesian: m, lat-lon: deg) */
(PID.TID 0000.0001)                 0.000000000000000E+00
(PID.TID 0000.0001)     ;
(PID.TID 0000.0001) ygOrigin = /* Y-axis origin of South edge (cartesian: m, lat-lon: deg) */
(PID.TID 0000.0001)                -8.000000000000000E+01
(PID.TID 0000.0001)     ;
(PID.TID 0000.0001) rSphere =  /* Radius ( ignored - cartesian, m - spherical ) */
(PID.TID 0000.0001)                 6.370000000000000E+06
(PID.TID 0000.0001)     ;
(PID.TID 0000.0001) deepAtmosphere = /* Deep/Shallow Atmosphere flag (True/False) */
(PID.TID 0000.0001)                   F
(PID.TID 0000.0001)     ;
(PID.TID 0000.0001) xC =  /* xC(:,1,:,1) : P-point X coord ( deg. or m if cartesian) */
(PID.TID 0000.0001)                 5.000000000000000E-01,      /* I =  1 */
(PID.TID 0000.0001)                 1.500000000000000E+00,      /* I =  2 */
(PID.TID 0000.0001)                 2.500000000000000E+00,      /* I =  3 */
(PID.TID 0000.0001)                 3.500000000000000E+00,      /* I =  4 */
(PID.TID 0000.0001)                 4.500000000000000E+00,      /* I =  5 */
(PID.TID 0000.0001)                 5.500000000000000E+00,      /* I =  6 */
(PID.TID 0000.0001)                 6.500000000000000E+00,      /* I =  7 */
(PID.TID 0000.0001)                 7.500000000000000E+00,      /* I =  8 */
(PID.TID 0000.0001)                 8.500000000000000E+00,      /* I =  9 */
(PID.TID 0000.0001)                 9.500000000000000E+00,      /* I = 10 */
(PID.TID 0000.0001)                 1.050000000000000E+01,      /* I = 11 */
(PID.TID 0000.0001)                 1.150000000000000E+01,      /* I = 12 */
(PID.TID 0000.0001)                 1.250000000000000E+01,      /* I = 13 */
(PID.TID 0000.0001)                 1.350000000000000E+01,      /* I = 14 */
(PID.TID 0000.0001)                 1.450000000000000E+01,      /* I = 15 */
(PID.TID 0000.0001)                 1.550000000000000E+01,      /* I = 16 */
(PID.TID 0000.0001)                 1.650000000000000E+01,      /* I = 17 */
(PID.TID 0000.0001)                 1.750000000000000E+01,      /* I = 18 */
(PID.TID 0000.0001)                 1.850000000000000E+01,      /* I = 19 */
(PID.TID 0000.0001)                 1.950000000000000E+01,      /* I = 20 */
(PID.TID 0000.0001)                 2.050000000000000E+01,      /* I = 21 */
(PID.TID 0000.0001)                 2.150000000000000E+01,      /* I = 22 */
(PID.TID 0000.0001)                 2.250000000000000E+01,      /* I = 23 */
(PID.TID 0000.0001)                 2.350000000000000E+01,      /* I = 24 */
(PID.TID 0000.0001)                 2.450000000000000E+01,      /* I = 25 */
(PID.TID 0000.0001)                 2.550000000000000E+01,      /* I = 26 */
(PID.TID 0000.0001)                 2.650000000000000E+01,      /* I = 27 */
(PID.TID 0000.0001)                 2.750000000000000E+01,      /* I = 28 */
(PID.TID 0000.0001)                 2.850000000000000E+01,      /* I = 29 */
(PID.TID 0000.0001)                 2.950000000000000E+01,      /* I = 30 */
(PID.TID 0000.0001)                 3.050000000000000E+01,      /* I = 31 */
(PID.TID 0000.0001)                 3.150000000000000E+01,      /* I = 32 */
(PID.TID 0000.0001)                 3.250000000000000E+01,      /* I = 33 */
(PID.TID 0000.0001)                 3.350000000000000E+01,      /* I = 34 */
(PID.TID 0000.0001)                 3.450000000000000E+01,      /* I = 35 */
(PID.TID 0000.0001)                 3.550000000000000E+01,      /* I = 36 */
(PID.TID 0000.0001)                 3.650000000000000E+01,      /* I = 37 */
(PID.TID 0000.0001)                 3.750000000000000E+01,      /* I = 38 */
(PID.TID 0000.0001)                 3.850000000000000E+01,      /* I = 39 */
(PID.TID 0000.0001)                 3.950000000000000E+01,      /* I = 40 */
(PID.TID 0000.0001)                 4.050000000000000E+01,      /* I = 41 */
(PID.TID 0000.0001)                 4.150000000000000E+01,      /* I = 42 */
(PID.TID 0000.0001)                 4.250000000000000E+01,      /* I = 43 */
(PID.TID 0000.0001)                 4.350000000000000E+01,      /* I = 44 */
(PID.TID 0000.0001)                 4.450000000000000E+01       /* I = 45 */
(PID.TID 0000.0001)     ;
(PID.TID 0000.0001) yC =  /* yC(1,:,1,:) : P-point Y coord ( deg. or m if cartesian) */
(PID.TID 0000.0001)                -7.950000000000000E+01,      /* J =  1 */
(PID.TID 0000.0001)                -7.850000000000000E+01,      /* J =  2 */
(PID.TID 0000.0001)                -7.750000000000000E+01,      /* J =  3 */
(PID.TID 0000.0001)                -7.650000000000000E+01,      /* J =  4 */
(PID.TID 0000.0001)                -7.550000000000000E+01,      /* J =  5 */
(PID.TID 0000.0001)                -7.450000000000000E+01,      /* J =  6 */
(PID.TID 0000.0001)                -7.350000000000000E+01,      /* J =  7 */
(PID.TID 0000.0001)                -7.250000000000000E+01,      /* J =  8 */
(PID.TID 0000.0001)                -7.150000000000000E+01,      /* J =  9 */
(PID.TID 0000.0001)                -7.050000000000000E+01,      /* J = 10 */
(PID.TID 0000.0001)                -6.950000000000000E+01,      /* J = 11 */
(PID.TID 0000.0001)                -6.850000000000000E+01,      /* J = 12 */
(PID.TID 0000.0001)                -6.750000000000000E+01,      /* J = 13 */
(PID.TID 0000.0001)                -6.650000000000000E+01,      /* J = 14 */
(PID.TID 0000.0001)                -6.550000000000000E+01,      /* J = 15 */
(PID.TID 0000.0001)                -6.450000000000000E+01,      /* J = 16 */
(PID.TID 0000.0001)                -6.350000000000000E+01,      /* J = 17 */
(PID.TID 0000.0001)                -6.250000000000000E+01,      /* J = 18 */
(PID.TID 0000.0001)                -6.150000000000000E+01,      /* J = 19 */
(PID.TID 0000.0001)                -6.050000000000000E+01,      /* J = 20 */
(PID.TID 0000.0001)                -5.950000000000000E+01,      /* J = 21 */
(PID.TID 0000.0001)                -5.850000000000000E+01,      /* J = 22 */
(PID.TID 0000.0001)                -5.750000000000000E+01,      /* J = 23 */
(PID.TID 0000.0001)                -5.650000000000000E+01,      /* J = 24 */
(PID.TID 0000.0001)                -5.550000000000000E+01,      /* J = 25 */
(PID.TID 0000.0001)                -5.450000000000000E+01,      /* J = 26 */
(PID.TID 0000.0001)                -5.350000000000000E+01,      /* J = 27 */
(PID.TID 0000.0001)                -5.250000000000000E+01,      /* J = 28 */
(PID.TID 0000.0001)                -5.150000000000000E+01,      /* J = 29 */
(PID.TID 0000.0001)                -5.050000000000000E+01,      /* J = 30 */
(PID.TID 0000.0001)                -4.950000000000000E+01,      /* J = 31 */
(PID.TID 0000.0001)                -4.850000000000000E+01,      /* J = 32 */
(PID.TID 0000.0001)                -4.750000000000000E+01,      /* J = 33 */
(PID.TID 0000.0001)                -4.650000000000000E+01,      /* J = 34 */
(PID.TID 0000.0001)                -4.550000000000000E+01,      /* J = 35 */
(PID.TID 0000.0001)                -4.450000000000000E+01,      /* J = 36 */
(PID.TID 0000.0001)                -4.350000000000000E+01,      /* J = 37 */
(PID.TID 0000.0001)                -4.250000000000000E+01,      /* J = 38 */
(PID.TID 0000.0001)                -4.150000000000000E+01,      /* J = 39 */
(PID.TID 0000.0001)                -4.050000000000000E+01       /* J = 40 */
(PID.TID 0000.0001)     ;
(PID.TID 0000.0001) rcoord = /* P-point R coordinate (  units of r ) */
(PID.TID 0000.0001)                -5.000000000000000E+00,      /* K =  1 */
(PID.TID 0000.0001)                -1.500000000000000E+01,      /* K =  2 */
(PID.TID 0000.0001)                -2.750000000000000E+01,      /* K =  3 */
(PID.TID 0000.0001)                -4.500000000000000E+01,      /* K =  4 */
(PID.TID 0000.0001)                -6.500000000000000E+01,      /* K =  5 */
(PID.TID 0000.0001)                -8.750000000000000E+01,      /* K =  6 */
(PID.TID 0000.0001)                -1.175000000000000E+02,      /* K =  7 */
(PID.TID 0000.0001)                -1.600000000000000E+02,      /* K =  8 */
(PID.TID 0000.0001)                -2.225000000000000E+02,      /* K =  9 */
(PID.TID 0000.0001)                -3.100000000000000E+02,      /* K = 10 */
(PID.TID 0000.0001)                -4.350000000000000E+02,      /* K = 11 */
(PID.TID 0000.0001)                -6.100000000000000E+02,      /* K = 12 */
(PID.TID 0000.0001)                -8.475000000000000E+02,      /* K = 13 */
(PID.TID 0000.0001)                -1.160000000000000E+03,      /* K = 14 */
(PID.TID 0000.0001)                -1.542500000000000E+03,      /* K = 15 */
(PID.TID 0000.0001)                -1.975000000000000E+03,      /* K = 16 */
(PID.TID 0000.0001)                -2.450000000000000E+03,      /* K = 17 */
(PID.TID 0000.0001)                -2.950000000000000E+03,      /* K = 18 */
(PID.TID 0000.0001)                -3.450000000000000E+03,      /* K = 19 */
(PID.TID 0000.0001)                -3.950000000000000E+03,      /* K = 20 */
(PID.TID 0000.0001)                -4.450000000000000E+03,      /* K = 21 */
(PID.TID 0000.0001)                -4.950000000000000E+03,      /* K = 22 */
(PID.TID 0000.0001)                -5.450000000000000E+03       /* K = 23 */
(PID.TID 0000.0001)     ;
(PID.TID 0000.0001) rF =   /* W-Interf. R coordinate (  units of r ) */
(PID.TID 0000.0001)                 0.000000000000000E+00,      /* K =  1 */
(PID.TID 0000.0001)                -1.000000000000000E+01,      /* K =  2 */
(PID.TID 0000.0001)                -2.000000000000000E+01,      /* K =  3 */
(PID.TID 0000.0001)                -3.500000000000000E+01,      /* K =  4 */
(PID.TID 0000.0001)                -5.500000000000000E+01,      /* K =  5 */
(PID.TID 0000.0001)                -7.500000000000000E+01,      /* K =  6 */
(PID.TID 0000.0001)                -1.000000000000000E+02,      /* K =  7 */
(PID.TID 0000.0001)                -1.350000000000000E+02,      /* K =  8 */
(PID.TID 0000.0001)                -1.850000000000000E+02,      /* K =  9 */
(PID.TID 0000.0001)                -2.600000000000000E+02,      /* K = 10 */
(PID.TID 0000.0001)                -3.600000000000000E+02,      /* K = 11 */
(PID.TID 0000.0001)                -5.100000000000000E+02,      /* K = 12 */
(PID.TID 0000.0001)                -7.100000000000000E+02,      /* K = 13 */
(PID.TID 0000.0001)                -9.850000000000000E+02,      /* K = 14 */
(PID.TID 0000.0001)                -1.335000000000000E+03,      /* K = 15 */
(PID.TID 0000.0001)                -1.750000000000000E+03,      /* K = 16 */
(PID.TID 0000.0001)                -2.200000000000000E+03,      /* K = 17 */
(PID.TID 0000.0001)                -2.700000000000000E+03,      /* K = 18 */
(PID.TID 0000.0001)                -3.200000000000000E+03,      /* K = 19 */
(PID.TID 0000.0001)                -3.700000000000000E+03,      /* K = 20 */
(PID.TID 0000.0001)                -4.200000000000000E+03,      /* K = 21 */
(PID.TID 0000.0001)                -4.700000000000000E+03,      /* K = 22 */
(PID.TID 0000.0001)                -5.200000000000000E+03,      /* K = 23 */
(PID.TID 0000.0001)                -5.700000000000000E+03       /* K = 24 */
(PID.TID 0000.0001)     ;
(PID.TID 0000.0001) deepFacC = /* deep-model grid factor @ cell-Center (-) */
(PID.TID 0000.0001)    23 @  1.000000000000000E+00              /* K =  1: 23 */
(PID.TID 0000.0001)     ;
(PID.TID 0000.0001) deepFacF = /* deep-model grid factor @ W-Interface (-) */
(PID.TID 0000.0001)    24 @  1.000000000000000E+00              /* K =  1: 24 */
(PID.TID 0000.0001)     ;
(PID.TID 0000.0001) rVel2wUnit = /* convert units: rVel -> wSpeed (=1 if z-coord)*/
(PID.TID 0000.0001)    24 @  1.000000000000000E+00              /* K =  1: 24 */
(PID.TID 0000.0001)     ;
(PID.TID 0000.0001) wUnit2rVel = /* convert units: wSpeed -> rVel (=1 if z-coord)*/
(PID.TID 0000.0001)    24 @  1.000000000000000E+00              /* K =  1: 24 */
(PID.TID 0000.0001)     ;
(PID.TID 0000.0001) dBdrRef = /* Vertical grad. of reference buoyancy [(m/s/r)^2] */
(PID.TID 0000.0001)    23 @  0.000000000000000E+00              /* K =  1: 23 */
(PID.TID 0000.0001)     ;
(PID.TID 0000.0001) rotateGrid = /* use rotated grid ( True/False ) */
(PID.TID 0000.0001)                   F
(PID.TID 0000.0001)     ;
(PID.TID 0000.0001) phiEuler = /* Euler angle, rotation about original z-coordinate [rad] */
(PID.TID 0000.0001)                 0.000000000000000E+00
(PID.TID 0000.0001)     ;
(PID.TID 0000.0001) thetaEuler = /* Euler angle, rotation about new x-coordinate [rad] */
(PID.TID 0000.0001)                 0.000000000000000E+00
(PID.TID 0000.0001)     ;
(PID.TID 0000.0001) psiEuler = /* Euler angle, rotation about new z-coordinate [rad] */
(PID.TID 0000.0001)                 0.000000000000000E+00
(PID.TID 0000.0001)     ;
(PID.TID 0000.0001) dxF =  /* dxF(:,1,:,1) ( units: m ) */
(PID.TID 0000.0001)    45 @  2.026048527919801E+04              /* I =  1: 45 */
(PID.TID 0000.0001)     ;
(PID.TID 0000.0001) dxF =  /* dxF(1,:,1,:) ( units: m ) */
(PID.TID 0000.0001)                 2.026048527919801E+04,      /* J =  1 */
(PID.TID 0000.0001)                 2.216522321591896E+04,      /* J =  2 */
(PID.TID 0000.0001)                 2.406320941092900E+04,      /* J =  3 */
(PID.TID 0000.0001)                 2.595386571924693E+04,      /* J =  4 */
(PID.TID 0000.0001)                 2.783661622864603E+04,      /* J =  5 */
(PID.TID 0000.0001)                 2.971088743508253E+04,      /* J =  6 */
(PID.TID 0000.0001)                 3.157610841739049E+04,      /* J =  7 */
(PID.TID 0000.0001)                 3.343171101118984E+04,      /* J =  8 */
(PID.TID 0000.0001)                 3.527712998195495E+04,      /* J =  9 */
(PID.TID 0000.0001)                 3.711180319719033E+04,      /* J = 10 */
(PID.TID 0000.0001)                 3.893517179766173E+04,      /* J = 11 */
(PID.TID 0000.0001)                 4.074668036763009E+04,      /* J = 12 */
(PID.TID 0000.0001)                 4.254577710403652E+04,      /* J = 13 */
(PID.TID 0000.0001)                 4.433191398458684E+04,      /* J = 14 */
(PID.TID 0000.0001)                 4.610454693468459E+04,      /* J = 15 */
(PID.TID 0000.0001)                 4.786313599316124E+04,      /* J = 16 */
(PID.TID 0000.0001)                 4.960714547675374E+04,      /* J = 17 */
(PID.TID 0000.0001)                 5.133604414327884E+04,      /* J = 18 */
(PID.TID 0000.0001)                 5.304930535345447E+04,      /* J = 19 */
(PID.TID 0000.0001)                 5.474640723131929E+04,      /* J = 20 */
(PID.TID 0000.0001)                 5.642683282320108E+04,      /* J = 21 */
(PID.TID 0000.0001)                 5.809007025518592E+04,      /* J = 22 */
(PID.TID 0000.0001)                 5.973561288903989E+04,      /* J = 23 */
(PID.TID 0000.0001)                 6.136295947653597E+04,      /* J = 24 */
(PID.TID 0000.0001)                 6.297161431213917E+04,      /* J = 25 */
(PID.TID 0000.0001)                 6.456108738400316E+04,      /* J = 26 */
(PID.TID 0000.0001)                 6.613089452323271E+04,      /* J = 27 */
(PID.TID 0000.0001)                 6.768055755136610E+04,      /* J = 28 */
(PID.TID 0000.0001)                 6.920960442603305E+04,      /* J = 29 */
(PID.TID 0000.0001)                 7.071756938474336E+04,      /* J = 30 */
(PID.TID 0000.0001)                 7.220399308676260E+04,      /* J = 31 */
(PID.TID 0000.0001)                 7.366842275303182E+04,      /* J = 32 */
(PID.TID 0000.0001)                 7.511041230408842E+04,      /* J = 33 */
(PID.TID 0000.0001)                 7.652952249594631E+04,      /* J = 34 */
(PID.TID 0000.0001)                 7.792532105389379E+04,      /* J = 35 */
(PID.TID 0000.0001)                 7.929738280416872E+04,      /* J = 36 */
(PID.TID 0000.0001)                 8.064528980347051E+04,      /* J = 37 */
(PID.TID 0000.0001)                 8.196863146626968E+04,      /* J = 38 */
(PID.TID 0000.0001)                 8.326700468987630E+04,      /* J = 39 */
(PID.TID 0000.0001)                 8.454001397722875E+04       /* J = 40 */
(PID.TID 0000.0001)     ;
(PID.TID 0000.0001) dyF =  /* dyF(:,1,:,1) ( units: m ) */
(PID.TID 0000.0001)    45 @  1.111774733520388E+05              /* I =  1: 45 */
(PID.TID 0000.0001)     ;
(PID.TID 0000.0001) dyF =  /* dyF(1,:,1,:) ( units: m ) */
(PID.TID 0000.0001)    40 @  1.111774733520388E+05              /* J =  1: 40 */
(PID.TID 0000.0001)     ;
(PID.TID 0000.0001) dxG =  /* dxG(:,1,:,1) ( units: m ) */
(PID.TID 0000.0001)    45 @  1.930576564519525E+04              /* I =  1: 45 */
(PID.TID 0000.0001)     ;
(PID.TID 0000.0001) dxG =  /* dxG(1,:,1,:) ( units: m ) */
(PID.TID 0000.0001)                 1.930576564519525E+04,      /* J =  1 */
(PID.TID 0000.0001)                 2.121366199880512E+04,      /* J =  2 */
(PID.TID 0000.0001)                 2.311509646546878E+04,      /* J =  3 */
(PID.TID 0000.0001)                 2.500948984982807E+04,      /* J =  4 */
(PID.TID 0000.0001)                 2.689626510130676E+04,      /* J =  5 */
(PID.TID 0000.0001)                 2.877484748988563E+04,      /* J =  6 */
(PID.TID 0000.0001)                 3.064466478117086E+04,      /* J =  7 */
(PID.TID 0000.0001)                 3.250514741070222E+04,      /* J =  8 */
(PID.TID 0000.0001)                 3.435572865744784E+04,      /* J =  9 */
(PID.TID 0000.0001)                 3.619584481643300E+04,      /* J = 10 */
(PID.TID 0000.0001)                 3.802493537045003E+04,      /* J = 11 */
(PID.TID 0000.0001)                 3.984244316079742E+04,      /* J = 12 */
(PID.TID 0000.0001)                 4.164781455699558E+04,      /* J = 13 */
(PID.TID 0000.0001)                 4.344049962542827E+04,      /* J = 14 */
(PID.TID 0000.0001)                 4.521995229685750E+04,      /* J = 15 */
(PID.TID 0000.0001)                 4.698563053276157E+04,      /* J = 16 */
(PID.TID 0000.0001)                 4.873699649044534E+04,      /* J = 17 */
(PID.TID 0000.0001)                 5.047351668687224E+04,      /* J = 18 */
(PID.TID 0000.0001)                 5.219466216116839E+04,      /* J = 19 */
(PID.TID 0000.0001)                 5.389990863574919E+04,      /* J = 20 */
(PID.TID 0000.0001)                 5.558873667601941E+04,      /* J = 21 */
(PID.TID 0000.0001)                 5.726063184859791E+04,      /* J = 22 */
(PID.TID 0000.0001)                 5.891508487801914E+04,      /* J = 23 */
(PID.TID 0000.0001)                 6.055159180186330E+04,      /* J = 24 */
(PID.TID 0000.0001)                 6.216965412426815E+04,      /* J = 25 */
(PID.TID 0000.0001)                 6.376877896777581E+04,      /* J = 26 */
(PID.TID 0000.0001)                 6.534847922346782E+04,      /* J = 27 */
(PID.TID 0000.0001)                 6.690827369934347E+04,      /* J = 28 */
(PID.TID 0000.0001)                 6.844768726689526E+04,      /* J = 29 */
(PID.TID 0000.0001)                 6.996625100583794E+04,      /* J = 30 */
(PID.TID 0000.0001)                 7.146350234694594E+04,      /* J = 31 */
(PID.TID 0000.0001)                 7.293898521295657E+04,      /* J = 32 */
(PID.TID 0000.0001)                 7.439225015749552E+04,      /* J = 33 */
(PID.TID 0000.0001)                 7.582285450198258E+04,      /* J = 34 */
(PID.TID 0000.0001)                 7.723036247047585E+04,      /* J = 35 */
(PID.TID 0000.0001)                 7.861434532241331E+04,      /* J = 36 */
(PID.TID 0000.0001)                 7.997438148321130E+04,      /* J = 37 */
(PID.TID 0000.0001)                 8.131005667268025E+04,      /* J = 38 */
(PID.TID 0000.0001)                 8.262096403121852E+04,      /* J = 39 */
(PID.TID 0000.0001)                 8.390670424374563E+04       /* J = 40 */
(PID.TID 0000.0001)     ;
(PID.TID 0000.0001) dyG =  /* dyG(:,1,:,1) ( units: m ) */
(PID.TID 0000.0001)    45 @  1.111774733520388E+05              /* I =  1: 45 */
(PID.TID 0000.0001)     ;
(PID.TID 0000.0001) dyG =  /* dyG(1,:,1,:) ( units: m ) */
(PID.TID 0000.0001)    40 @  1.111774733520388E+05              /* J =  1: 40 */
(PID.TID 0000.0001)     ;
(PID.TID 0000.0001) dxC =  /* dxC(:,1,:,1) ( units: m ) */
(PID.TID 0000.0001)    45 @  2.026048527919801E+04              /* I =  1: 45 */
(PID.TID 0000.0001)     ;
(PID.TID 0000.0001) dxC =  /* dxC(1,:,1,:) ( units: m ) */
(PID.TID 0000.0001)                 2.026048527919801E+04,      /* J =  1 */
(PID.TID 0000.0001)                 2.216522321591896E+04,      /* J =  2 */
(PID.TID 0000.0001)                 2.406320941092900E+04,      /* J =  3 */
(PID.TID 0000.0001)                 2.595386571924693E+04,      /* J =  4 */
(PID.TID 0000.0001)                 2.783661622864603E+04,      /* J =  5 */
(PID.TID 0000.0001)                 2.971088743508253E+04,      /* J =  6 */
(PID.TID 0000.0001)                 3.157610841739049E+04,      /* J =  7 */
(PID.TID 0000.0001)                 3.343171101118984E+04,      /* J =  8 */
(PID.TID 0000.0001)                 3.527712998195495E+04,      /* J =  9 */
(PID.TID 0000.0001)                 3.711180319719033E+04,      /* J = 10 */
(PID.TID 0000.0001)                 3.893517179766173E+04,      /* J = 11 */
(PID.TID 0000.0001)                 4.074668036763009E+04,      /* J = 12 */
(PID.TID 0000.0001)                 4.254577710403652E+04,      /* J = 13 */
(PID.TID 0000.0001)                 4.433191398458684E+04,      /* J = 14 */
(PID.TID 0000.0001)                 4.610454693468459E+04,      /* J = 15 */
(PID.TID 0000.0001)                 4.786313599316124E+04,      /* J = 16 */
(PID.TID 0000.0001)                 4.960714547675374E+04,      /* J = 17 */
(PID.TID 0000.0001)                 5.133604414327884E+04,      /* J = 18 */
(PID.TID 0000.0001)                 5.304930535345447E+04,      /* J = 19 */
(PID.TID 0000.0001)                 5.474640723131929E+04,      /* J = 20 */
(PID.TID 0000.0001)                 5.642683282320108E+04,      /* J = 21 */
(PID.TID 0000.0001)                 5.809007025518592E+04,      /* J = 22 */
(PID.TID 0000.0001)                 5.973561288903989E+04,      /* J = 23 */
(PID.TID 0000.0001)                 6.136295947653597E+04,      /* J = 24 */
(PID.TID 0000.0001)                 6.297161431213917E+04,      /* J = 25 */
(PID.TID 0000.0001)                 6.456108738400316E+04,      /* J = 26 */
(PID.TID 0000.0001)                 6.613089452323271E+04,      /* J = 27 */
(PID.TID 0000.0001)                 6.768055755136610E+04,      /* J = 28 */
(PID.TID 0000.0001)                 6.920960442603305E+04,      /* J = 29 */
(PID.TID 0000.0001)                 7.071756938474336E+04,      /* J = 30 */
(PID.TID 0000.0001)                 7.220399308676260E+04,      /* J = 31 */
(PID.TID 0000.0001)                 7.366842275303182E+04,      /* J = 32 */
(PID.TID 0000.0001)                 7.511041230408842E+04,      /* J = 33 */
(PID.TID 0000.0001)                 7.652952249594631E+04,      /* J = 34 */
(PID.TID 0000.0001)                 7.792532105389379E+04,      /* J = 35 */
(PID.TID 0000.0001)                 7.929738280416872E+04,      /* J = 36 */
(PID.TID 0000.0001)                 8.064528980347051E+04,      /* J = 37 */
(PID.TID 0000.0001)                 8.196863146626968E+04,      /* J = 38 */
(PID.TID 0000.0001)                 8.326700468987630E+04,      /* J = 39 */
(PID.TID 0000.0001)                 8.454001397722875E+04       /* J = 40 */
(PID.TID 0000.0001)     ;
(PID.TID 0000.0001) dyC =  /* dyC(:,1,:,1) ( units: m ) */
(PID.TID 0000.0001)    45 @  1.111774733520388E+05              /* I =  1: 45 */
(PID.TID 0000.0001)     ;
(PID.TID 0000.0001) dyC =  /* dyC(1,:,1,:) ( units: m ) */
(PID.TID 0000.0001)    40 @  1.111774733520388E+05              /* J =  1: 40 */
(PID.TID 0000.0001)     ;
(PID.TID 0000.0001) dxV =  /* dxV(:,1,:,1) ( units: m ) */
(PID.TID 0000.0001)    45 @  1.930576564519525E+04              /* I =  1: 45 */
(PID.TID 0000.0001)     ;
(PID.TID 0000.0001) dxV =  /* dxV(1,:,1,:) ( units: m ) */
(PID.TID 0000.0001)                 1.930576564519525E+04,      /* J =  1 */
(PID.TID 0000.0001)                 2.121366199880512E+04,      /* J =  2 */
(PID.TID 0000.0001)                 2.311509646546878E+04,      /* J =  3 */
(PID.TID 0000.0001)                 2.500948984982807E+04,      /* J =  4 */
(PID.TID 0000.0001)                 2.689626510130676E+04,      /* J =  5 */
(PID.TID 0000.0001)                 2.877484748988563E+04,      /* J =  6 */
(PID.TID 0000.0001)                 3.064466478117086E+04,      /* J =  7 */
(PID.TID 0000.0001)                 3.250514741070222E+04,      /* J =  8 */
(PID.TID 0000.0001)                 3.435572865744784E+04,      /* J =  9 */
(PID.TID 0000.0001)                 3.619584481643300E+04,      /* J = 10 */
(PID.TID 0000.0001)                 3.802493537045003E+04,      /* J = 11 */
(PID.TID 0000.0001)                 3.984244316079742E+04,      /* J = 12 */
(PID.TID 0000.0001)                 4.164781455699558E+04,      /* J = 13 */
(PID.TID 0000.0001)                 4.344049962542827E+04,      /* J = 14 */
(PID.TID 0000.0001)                 4.521995229685750E+04,      /* J = 15 */
(PID.TID 0000.0001)                 4.698563053276157E+04,      /* J = 16 */
(PID.TID 0000.0001)                 4.873699649044534E+04,      /* J = 17 */
(PID.TID 0000.0001)                 5.047351668687224E+04,      /* J = 18 */
(PID.TID 0000.0001)                 5.219466216116839E+04,      /* J = 19 */
(PID.TID 0000.0001)                 5.389990863574919E+04,      /* J = 20 */
(PID.TID 0000.0001)                 5.558873667601941E+04,      /* J = 21 */
(PID.TID 0000.0001)                 5.726063184859791E+04,      /* J = 22 */
(PID.TID 0000.0001)                 5.891508487801914E+04,      /* J = 23 */
(PID.TID 0000.0001)                 6.055159180186330E+04,      /* J = 24 */
(PID.TID 0000.0001)                 6.216965412426815E+04,      /* J = 25 */
(PID.TID 0000.0001)                 6.376877896777581E+04,      /* J = 26 */
(PID.TID 0000.0001)                 6.534847922346782E+04,      /* J = 27 */
(PID.TID 0000.0001)                 6.690827369934347E+04,      /* J = 28 */
(PID.TID 0000.0001)                 6.844768726689526E+04,      /* J = 29 */
(PID.TID 0000.0001)                 6.996625100583794E+04,      /* J = 30 */
(PID.TID 0000.0001)                 7.146350234694594E+04,      /* J = 31 */
(PID.TID 0000.0001)                 7.293898521295657E+04,      /* J = 32 */
(PID.TID 0000.0001)                 7.439225015749552E+04,      /* J = 33 */
(PID.TID 0000.0001)                 7.582285450198258E+04,      /* J = 34 */
(PID.TID 0000.0001)                 7.723036247047585E+04,      /* J = 35 */
(PID.TID 0000.0001)                 7.861434532241331E+04,      /* J = 36 */
(PID.TID 0000.0001)                 7.997438148321130E+04,      /* J = 37 */
(PID.TID 0000.0001)                 8.131005667268025E+04,      /* J = 38 */
(PID.TID 0000.0001)                 8.262096403121852E+04,      /* J = 39 */
(PID.TID 0000.0001)                 8.390670424374563E+04       /* J = 40 */
(PID.TID 0000.0001)     ;
(PID.TID 0000.0001) dyU =  /* dyU(:,1,:,1) ( units: m ) */
(PID.TID 0000.0001)    45 @  1.111774733520388E+05              /* I =  1: 45 */
(PID.TID 0000.0001)     ;
(PID.TID 0000.0001) dyU =  /* dyU(1,:,1,:) ( units: m ) */
(PID.TID 0000.0001)    40 @  1.111774733520388E+05              /* J =  1: 40 */
(PID.TID 0000.0001)     ;
(PID.TID 0000.0001) rA  =  /* rA (:,1,:,1) ( units: m^2 ) */
(PID.TID 0000.0001)    45 @  2.252480972600775E+09              /* I =  1: 45 */
(PID.TID 0000.0001)     ;
(PID.TID 0000.0001) rA  =  /* rA (1,:,1,:) ( units: m^2 ) */
(PID.TID 0000.0001)                 2.252480972600775E+09,      /* J =  1 */
(PID.TID 0000.0001)                 2.464242236022337E+09,      /* J =  2 */
(PID.TID 0000.0001)                 2.675252867386942E+09,      /* J =  3 */
(PID.TID 0000.0001)                 2.885448590812564E+09,      /* J =  4 */
(PID.TID 0000.0001)                 3.094765378645360E+09,      /* J =  5 */
(PID.TID 0000.0001)                 3.303139470964198E+09,      /* J =  6 */
(PID.TID 0000.0001)                 3.510507395001996E+09,      /* J =  7 */
(PID.TID 0000.0001)                 3.716805984480110E+09,      /* J =  8 */
(PID.TID 0000.0001)                 3.921972398849929E+09,      /* J =  9 */
(PID.TID 0000.0001)                 4.125944142434001E+09,      /* J = 10 */
(PID.TID 0000.0001)                 4.328659083463362E+09,      /* J = 11 */
(PID.TID 0000.0001)                 4.530055473003297E+09,      /* J = 12 */
(PID.TID 0000.0001)                 4.730071963762505E+09,      /* J = 13 */
(PID.TID 0000.0001)                 4.928647628780381E+09,      /* J = 14 */
(PID.TID 0000.0001)                 5.125721979985523E+09,      /* J = 15 */
(PID.TID 0000.0001)                 5.321234986621584E+09,      /* J = 16 */
(PID.TID 0000.0001)                 5.515127093532944E+09,      /* J = 17 */
(PID.TID 0000.0001)                 5.707339239305150E+09,      /* J = 18 */
(PID.TID 0000.0001)                 5.897812874256923E+09,      /* J = 19 */
(PID.TID 0000.0001)                 6.086489978273794E+09,      /* J = 20 */
(PID.TID 0000.0001)                 6.273313078482073E+09,      /* J = 21 */
(PID.TID 0000.0001)                 6.458225266755869E+09,      /* J = 22 */
(PID.TID 0000.0001)                 6.641170217051002E+09,      /* J = 23 */
(PID.TID 0000.0001)                 6.822092202563635E+09,      /* J = 24 */
(PID.TID 0000.0001)                 7.000936112704308E+09,      /* J = 25 */
(PID.TID 0000.0001)                 7.177647469885383E+09,      /* J = 26 */
(PID.TID 0000.0001)                 7.352172446115779E+09,      /* J = 27 */
(PID.TID 0000.0001)                 7.524457879396867E+09,      /* J = 28 */
(PID.TID 0000.0001)                 7.694451289916993E+09,      /* J = 29 */
(PID.TID 0000.0001)                 7.862100896036314E+09,      /* J = 30 */
(PID.TID 0000.0001)                 8.027355630060758E+09,      /* J = 31 */
(PID.TID 0000.0001)                 8.190165153797634E+09,      /* J = 32 */
(PID.TID 0000.0001)                 8.350479873888739E+09,      /* J = 33 */
(PID.TID 0000.0001)                 8.508250956917325E+09,      /* J = 34 */
(PID.TID 0000.0001)                 8.663430344283134E+09,      /* J = 35 */
(PID.TID 0000.0001)                 8.815970766841537E+09,      /* J = 36 */
(PID.TID 0000.0001)                 8.965825759302174E+09,      /* J = 37 */
(PID.TID 0000.0001)                 9.112949674382580E+09,      /* J = 38 */
(PID.TID 0000.0001)                 9.257297696713127E+09,      /* J = 39 */
(PID.TID 0000.0001)                 9.398825856487764E+09       /* J = 40 */
(PID.TID 0000.0001)     ;
(PID.TID 0000.0001) rAw =  /* rAw(:,1,:,1) ( units: m^2 ) */
(PID.TID 0000.0001)    45 @  2.252480972600775E+09              /* I =  1: 45 */
(PID.TID 0000.0001)     ;
(PID.TID 0000.0001) rAw =  /* rAw(1,:,1,:) ( units: m^2 ) */
(PID.TID 0000.0001)                 2.252480972600775E+09,      /* J =  1 */
(PID.TID 0000.0001)                 2.464242236022337E+09,      /* J =  2 */
(PID.TID 0000.0001)                 2.675252867386942E+09,      /* J =  3 */
(PID.TID 0000.0001)                 2.885448590812564E+09,      /* J =  4 */
(PID.TID 0000.0001)                 3.094765378645360E+09,      /* J =  5 */
(PID.TID 0000.0001)                 3.303139470964198E+09,      /* J =  6 */
(PID.TID 0000.0001)                 3.510507395001996E+09,      /* J =  7 */
(PID.TID 0000.0001)                 3.716805984480110E+09,      /* J =  8 */
(PID.TID 0000.0001)                 3.921972398849929E+09,      /* J =  9 */
(PID.TID 0000.0001)                 4.125944142434001E+09,      /* J = 10 */
(PID.TID 0000.0001)                 4.328659083463362E+09,      /* J = 11 */
(PID.TID 0000.0001)                 4.530055473003297E+09,      /* J = 12 */
(PID.TID 0000.0001)                 4.730071963762505E+09,      /* J = 13 */
(PID.TID 0000.0001)                 4.928647628780381E+09,      /* J = 14 */
(PID.TID 0000.0001)                 5.125721979985523E+09,      /* J = 15 */
(PID.TID 0000.0001)                 5.321234986621584E+09,      /* J = 16 */
(PID.TID 0000.0001)                 5.515127093532944E+09,      /* J = 17 */
(PID.TID 0000.0001)                 5.707339239305150E+09,      /* J = 18 */
(PID.TID 0000.0001)                 5.897812874256923E+09,      /* J = 19 */
(PID.TID 0000.0001)                 6.086489978273794E+09,      /* J = 20 */
(PID.TID 0000.0001)                 6.273313078482073E+09,      /* J = 21 */
(PID.TID 0000.0001)                 6.458225266755869E+09,      /* J = 22 */
(PID.TID 0000.0001)                 6.641170217051002E+09,      /* J = 23 */
(PID.TID 0000.0001)                 6.822092202563635E+09,      /* J = 24 */
(PID.TID 0000.0001)                 7.000936112704308E+09,      /* J = 25 */
(PID.TID 0000.0001)                 7.177647469885383E+09,      /* J = 26 */
(PID.TID 0000.0001)                 7.352172446115779E+09,      /* J = 27 */
(PID.TID 0000.0001)                 7.524457879396867E+09,      /* J = 28 */
(PID.TID 0000.0001)                 7.694451289916993E+09,      /* J = 29 */
(PID.TID 0000.0001)                 7.862100896036314E+09,      /* J = 30 */
(PID.TID 0000.0001)                 8.027355630060758E+09,      /* J = 31 */
(PID.TID 0000.0001)                 8.190165153797634E+09,      /* J = 32 */
(PID.TID 0000.0001)                 8.350479873888739E+09,      /* J = 33 */
(PID.TID 0000.0001)                 8.508250956917325E+09,      /* J = 34 */
(PID.TID 0000.0001)                 8.663430344283134E+09,      /* J = 35 */
(PID.TID 0000.0001)                 8.815970766841537E+09,      /* J = 36 */
(PID.TID 0000.0001)                 8.965825759302174E+09,      /* J = 37 */
(PID.TID 0000.0001)                 9.112949674382580E+09,      /* J = 38 */
(PID.TID 0000.0001)                 9.257297696713127E+09,      /* J = 39 */
(PID.TID 0000.0001)                 9.398825856487764E+09       /* J = 40 */
(PID.TID 0000.0001)     ;
(PID.TID 0000.0001) rAs =  /* rAs(:,1,:,1) ( units: m^2 ) */
(PID.TID 0000.0001)    45 @  2.146339003140312E+09              /* I =  1: 45 */
(PID.TID 0000.0001)     ;
(PID.TID 0000.0001) rAs =  /* rAs(1,:,1,:) ( units: m^2 ) */
(PID.TID 0000.0001)                 2.146339003140312E+09,      /* J =  1 */
(PID.TID 0000.0001)                 2.358451406914464E+09,      /* J =  2 */
(PID.TID 0000.0001)                 2.569845403543145E+09,      /* J =  3 */
(PID.TID 0000.0001)                 2.780456600367350E+09,      /* J =  4 */
(PID.TID 0000.0001)                 2.990220843176115E+09,      /* J =  5 */
(PID.TID 0000.0001)                 3.199074235749182E+09,      /* J =  6 */
(PID.TID 0000.0001)                 3.406953159319860E+09,      /* J =  7 */
(PID.TID 0000.0001)                 3.613794291954373E+09,      /* J =  8 */
(PID.TID 0000.0001)                 3.819534627839939E+09,      /* J =  9 */
(PID.TID 0000.0001)                 4.024111496477147E+09,      /* J = 10 */
(PID.TID 0000.0001)                 4.227462581770208E+09,      /* J = 11 */
(PID.TID 0000.0001)                 4.429525941008306E+09,      /* J = 12 */
(PID.TID 0000.0001)                 4.630240023735217E+09,      /* J = 13 */
(PID.TID 0000.0001)                 4.829543690496597E+09,      /* J = 14 */
(PID.TID 0000.0001)                 5.027376231465073E+09,      /* J = 15 */
(PID.TID 0000.0001)                 5.223677384932224E+09,      /* J = 16 */
(PID.TID 0000.0001)                 5.418387355664783E+09,      /* J = 17 */
(PID.TID 0000.0001)                 5.611446833120007E+09,      /* J = 18 */
(PID.TID 0000.0001)                 5.802797009510403E+09,      /* J = 19 */
(PID.TID 0000.0001)                 5.992379597718760E+09,      /* J = 20 */
(PID.TID 0000.0001)                 6.180136849052222E+09,      /* J = 21 */
(PID.TID 0000.0001)                 6.366011570833056E+09,      /* J = 22 */
(PID.TID 0000.0001)                 6.549947143820458E+09,      /* J = 23 */
(PID.TID 0000.0001)                 6.731887539457176E+09,      /* J = 24 */
(PID.TID 0000.0001)                 6.911777336936083E+09,      /* J = 25 */
(PID.TID 0000.0001)                 7.089561740082285E+09,      /* J = 26 */
(PID.TID 0000.0001)                 7.265186594044338E+09,      /* J = 27 */
(PID.TID 0000.0001)                 7.438598401790304E+09,      /* J = 28 */
(PID.TID 0000.0001)                 7.609744340403865E+09,      /* J = 29 */
(PID.TID 0000.0001)                 7.778572277174043E+09,      /* J = 30 */
(PID.TID 0000.0001)                 7.945030785475936E+09,      /* J = 31 */
(PID.TID 0000.0001)                 8.109069160435303E+09,      /* J = 32 */
(PID.TID 0000.0001)                 8.270637434373945E+09,      /* J = 33 */
(PID.TID 0000.0001)                 8.429686392030848E+09,      /* J = 34 */
(PID.TID 0000.0001)                 8.586167585552389E+09,      /* J = 35 */
(PID.TID 0000.0001)                 8.740033349251320E+09,      /* J = 36 */
(PID.TID 0000.0001)                 8.891236814125528E+09,      /* J = 37 */
(PID.TID 0000.0001)                 9.039731922134653E+09,      /* J = 38 */
(PID.TID 0000.0001)                 9.185473440230581E+09,      /* J = 39 */
(PID.TID 0000.0001)                 9.328416974134933E+09       /* J = 40 */
(PID.TID 0000.0001)     ;
(PID.TID 0000.0001) globalArea = /* Integrated horizontal Area (m^2) */
(PID.TID 0000.0001)                 3.463878365678438E+14
(PID.TID 0000.0001)     ;
(PID.TID 0000.0001) // =======================================================
(PID.TID 0000.0001) // End of Model config. summary
(PID.TID 0000.0001) // =======================================================
(PID.TID 0000.0001) 
(PID.TID 0000.0001) == Packages configuration : Check & print summary ==
(PID.TID 0000.0001) 
(PID.TID 0000.0001) KPP_CHECK: #define ALLOW_KPP
(PID.TID 0000.0001) GMREDI_CHECK: #define GMREDI
(PID.TID 0000.0001) GM_AdvForm =     /* if FALSE => use SkewFlux Form */
(PID.TID 0000.0001)                   F
(PID.TID 0000.0001)     ;
(PID.TID 0000.0001) GM_InMomAsStress = /* if TRUE => apply as Eddy Stress */
(PID.TID 0000.0001)                   F
(PID.TID 0000.0001)     ;
(PID.TID 0000.0001) GM_AdvSeparate = /* Calc Bolus & Euler Adv. separately */
(PID.TID 0000.0001)                   F
(PID.TID 0000.0001)     ;
(PID.TID 0000.0001) GM_ExtraDiag =   /* Tensor Extra Diag (line 1&2) non 0 */
(PID.TID 0000.0001)                   F
(PID.TID 0000.0001)     ;
(PID.TID 0000.0001) GM_isopycK =    /* Background Isopyc. Diffusivity [m^2/s] */
(PID.TID 0000.0001)                 1.000000000000000E+03
(PID.TID 0000.0001)     ;
(PID.TID 0000.0001) GM_skewflx*K =  /* Background GM_SkewFlx Diffusivity [m^2/s] */
(PID.TID 0000.0001)                 1.000000000000000E+03
(PID.TID 0000.0001)     ;
(PID.TID 0000.0001) GM_advec*K =    /* Backg. GM-Advec(=Bolus) Diffusivity [m^2/s]*/
(PID.TID 0000.0001)                 0.000000000000000E+00
(PID.TID 0000.0001)     ;
(PID.TID 0000.0001) GM_Kmin_horiz = /* Minimum Horizontal Diffusivity [m^2/s] */
(PID.TID 0000.0001)                 5.000000000000000E+01
(PID.TID 0000.0001)     ;
(PID.TID 0000.0001) GM_Visbeck_alpha = /* Visbeck alpha coeff. [-] */
(PID.TID 0000.0001)                 0.000000000000000E+00
(PID.TID 0000.0001)     ;
(PID.TID 0000.0001) GM_Small_Number =  /* epsilon used in slope calc */
(PID.TID 0000.0001)                 9.999999999999999E-21
(PID.TID 0000.0001)     ;
(PID.TID 0000.0001) GM_slopeSqCutoff = /* Slope^2 cut-off value */
(PID.TID 0000.0001)                 1.000000000000000E+08
(PID.TID 0000.0001)     ;
(PID.TID 0000.0001) GM_taper_scheme =  /* Type of Tapering/Clipping scheme */
(PID.TID 0000.0001)               'dm95                                    '
(PID.TID 0000.0001)     ;
(PID.TID 0000.0001) GM_maxSlope =  /* Maximum Slope (Tapering/Clipping) */
(PID.TID 0000.0001)                 1.000000000000000E-02
(PID.TID 0000.0001)     ;
(PID.TID 0000.0001) GM_facTrL2dz = /* Minimum Trans.Layer Thick. (factor of dz) */
(PID.TID 0000.0001)                 1.000000000000000E+00
(PID.TID 0000.0001)     ;
(PID.TID 0000.0001) GM_facTrL2ML = /* Max.Trans.Layer Thick. (factor of MxL Depth)*/
(PID.TID 0000.0001)                 5.000000000000000E+00
(PID.TID 0000.0001)     ;
(PID.TID 0000.0001) GM_maxTransLay = /* Maximum Transition Layer Thickness [m] */
(PID.TID 0000.0001)                 5.000000000000000E+02
(PID.TID 0000.0001)     ;
(PID.TID 0000.0001) GM_UseBVP = /* if TRUE => use bvp a la Ferrari et al. (2010) */
(PID.TID 0000.0001)                   F
(PID.TID 0000.0001)     ;
(PID.TID 0000.0001) GM_BVP_ModeNumber = /* Vertical mode number for BVP wave speed */
(PID.TID 0000.0001)                       1
(PID.TID 0000.0001)     ;
(PID.TID 0000.0001) GM_BVP_cMin = /* Minimum wave speed for BVP [m/s] */
(PID.TID 0000.0001)                 1.000000000000000E-01
(PID.TID 0000.0001)     ;
(PID.TID 0000.0001) GM_useSubMeso = /* if TRUE => use Sub-Meso param. (B.Fox-Kemper) */
(PID.TID 0000.0001)                   F
(PID.TID 0000.0001)     ;
(PID.TID 0000.0001) subMeso_Ceff = /* efficiency coeff. of Mixed-Layer Eddies [-] */
(PID.TID 0000.0001)                 7.000000000000001E-02
(PID.TID 0000.0001)     ;
(PID.TID 0000.0001) subMeso_invTau = /* inverse of Sub-Meso mixing time-scale [/s] */
(PID.TID 0000.0001)                 2.000000000000000E-06
(PID.TID 0000.0001)     ;
(PID.TID 0000.0001) subMeso_LfMin = /* minimum length-scale "Lf" [m] */
(PID.TID 0000.0001)                 1.000000000000000E+03
(PID.TID 0000.0001)     ;
(PID.TID 0000.0001) subMeso_Lmax = /* maximum grid-scale length [m] */
(PID.TID 0000.0001)                 1.100000000000000E+05
(PID.TID 0000.0001)     ;
(PID.TID 0000.0001) PTRACERS_CHECK: #define ALLOW_PTRACERS
(PID.TID 0000.0001) PTRACERS_CHECK: updated GAD_OlMinSize=  2  0  1
(PID.TID 0000.0001) // ===================================
(PID.TID 0000.0001) // PTRACERS parameters
(PID.TID 0000.0001) // ===================================
(PID.TID 0000.0001) PTRACERS_numInUse = /* number of tracers */
(PID.TID 0000.0001)                      81
(PID.TID 0000.0001)     ;
(PID.TID 0000.0001) PTRACERS_Iter0 = /* timestep number when tracers are initialized */
(PID.TID 0000.0001)                       0
(PID.TID 0000.0001)     ;
(PID.TID 0000.0001) PTRACERS_startAllTrc =/* all tracers start @ startTime */
(PID.TID 0000.0001)                   T
(PID.TID 0000.0001)     ;
(PID.TID 0000.0001) PTRACERS_addSrelax2EmP =/* add Salt relaxation to EmP */
(PID.TID 0000.0001)                   F
(PID.TID 0000.0001)     ;
(PID.TID 0000.0001) PTRACERS_dTLev =   /* Ptracer timestep ( s ) */
(PID.TID 0000.0001)    23 @  1.080000000000000E+04              /* K =  1: 23 */
(PID.TID 0000.0001)     ;
(PID.TID 0000.0001) PTRACERS_monitorFreq = /* Frequency^-1 for monitor output (s) */
(PID.TID 0000.0001)                 1.000000000000000E+00
(PID.TID 0000.0001)     ;
(PID.TID 0000.0001) PTRACERS_dumpFreq = /* Frequency^-1 for snapshot output (s) */
(PID.TID 0000.0001)                 3.110400000000000E+07
(PID.TID 0000.0001)     ;
(PID.TID 0000.0001) PTRACERS_taveFreq = /* Frequency^-1 for time-Aver. output (s) */
(PID.TID 0000.0001)                 3.110400000000000E+07
(PID.TID 0000.0001)     ;
(PID.TID 0000.0001) PTRACERS_useRecords = /* all tracers in 1 file */
(PID.TID 0000.0001)                   F
(PID.TID 0000.0001)     ;
(PID.TID 0000.0001) PTRACERS_timeave_mnc = /* use MNC for Tave output */
(PID.TID 0000.0001)                   T
(PID.TID 0000.0001)     ;
(PID.TID 0000.0001) PTRACERS_snapshot_mnc = /* use MNC for snapshot output */
(PID.TID 0000.0001)                   T
(PID.TID 0000.0001)     ;
(PID.TID 0000.0001) PTRACERS_pickup_write_mnc = /* use MNC for writing pickups */
(PID.TID 0000.0001)                   F
(PID.TID 0000.0001)     ;
(PID.TID 0000.0001) PTRACERS_pickup_read_mnc = /* use MNC for reading pickups */
(PID.TID 0000.0001)                   F
(PID.TID 0000.0001)     ;
(PID.TID 0000.0001)  -----------------------------------
(PID.TID 0000.0001)  tracer number :    1
(PID.TID 0000.0001) PTRACERS_names = /* Tracer short name */
(PID.TID 0000.0001)               'DIC'
(PID.TID 0000.0001)     ;
(PID.TID 0000.0001) PTRACERS_long_names = /* Tracer long name */
(PID.TID 0000.0001)               ''
(PID.TID 0000.0001)     ;
(PID.TID 0000.0001) PTRACERS_ioLabel = /* tracer IO Label */
(PID.TID 0000.0001)               '01'
(PID.TID 0000.0001)     ;
(PID.TID 0000.0001) PTRACERS_advScheme = /* Advection Scheme */
(PID.TID 0000.0001)                      33
(PID.TID 0000.0001)     ;
(PID.TID 0000.0001) PTRACERS_SOM_Advection = /* tracer uses SOM advection scheme */
(PID.TID 0000.0001)                   F
(PID.TID 0000.0001)     ;
(PID.TID 0000.0001) PTRACERS_ImplVertAdv = /* implicit vert. advection flag */
(PID.TID 0000.0001)                   F
(PID.TID 0000.0001)     ;
(PID.TID 0000.0001) PTRACERS_diffKh = /* Laplacian Diffusivity */
(PID.TID 0000.0001)                 0.000000000000000E+00
(PID.TID 0000.0001)     ;
(PID.TID 0000.0001) PTRACERS_diffK4 = /* Biharmonic Diffusivity */
(PID.TID 0000.0001)                 0.000000000000000E+00
(PID.TID 0000.0001)     ;
(PID.TID 0000.0001) PTRACERS_diffKrNr = /* Vertical Diffusivity */
(PID.TID 0000.0001)    23 @  1.000000000000000E-05              /* K =  1: 23 */
(PID.TID 0000.0001)     ;
(PID.TID 0000.0001) PTRACERS_useGMRedi = /* apply GM-Redi */
(PID.TID 0000.0001)                   T
(PID.TID 0000.0001)     ;
(PID.TID 0000.0001) PTRACERS_useDWNSLP = /* apply DOWN-SLOPE Flow */
(PID.TID 0000.0001)                   F
(PID.TID 0000.0001)     ;
(PID.TID 0000.0001) PTRACERS_useKPP = /* apply KPP scheme */
(PID.TID 0000.0001)                   T
(PID.TID 0000.0001)     ;
(PID.TID 0000.0001) PTRACERS_ref = /* Reference vertical profile */
(PID.TID 0000.0001)    23 @  0.000000000000000E+00              /* K =  1: 23 */
(PID.TID 0000.0001)     ;
(PID.TID 0000.0001) PTRACERS_EvPrRn =/* tracer conc. in Evap. & Rain */
(PID.TID 0000.0001)                 1.234567000000000E+05
(PID.TID 0000.0001)     ;
(PID.TID 0000.0001)  -----------------------------------
(PID.TID 0000.0001)  tracer number :    2
(PID.TID 0000.0001) PTRACERS_names = /* Tracer short name */
(PID.TID 0000.0001)               'NH4'
(PID.TID 0000.0001)     ;
(PID.TID 0000.0001) PTRACERS_long_names = /* Tracer long name */
(PID.TID 0000.0001)               ''
(PID.TID 0000.0001)     ;
(PID.TID 0000.0001) PTRACERS_ioLabel = /* tracer IO Label */
(PID.TID 0000.0001)               '02'
(PID.TID 0000.0001)     ;
(PID.TID 0000.0001) PTRACERS_advScheme = /* Advection Scheme */
(PID.TID 0000.0001)                      33
(PID.TID 0000.0001)     ;
(PID.TID 0000.0001) PTRACERS_SOM_Advection = /* tracer uses SOM advection scheme */
(PID.TID 0000.0001)                   F
(PID.TID 0000.0001)     ;
(PID.TID 0000.0001) PTRACERS_ImplVertAdv = /* implicit vert. advection flag */
(PID.TID 0000.0001)                   F
(PID.TID 0000.0001)     ;
(PID.TID 0000.0001) PTRACERS_diffKh = /* Laplacian Diffusivity */
(PID.TID 0000.0001)                 0.000000000000000E+00
(PID.TID 0000.0001)     ;
(PID.TID 0000.0001) PTRACERS_diffK4 = /* Biharmonic Diffusivity */
(PID.TID 0000.0001)                 0.000000000000000E+00
(PID.TID 0000.0001)     ;
(PID.TID 0000.0001) PTRACERS_diffKrNr = /* Vertical Diffusivity */
(PID.TID 0000.0001)    23 @  1.000000000000000E-05              /* K =  1: 23 */
(PID.TID 0000.0001)     ;
(PID.TID 0000.0001) PTRACERS_useGMRedi = /* apply GM-Redi */
(PID.TID 0000.0001)                   T
(PID.TID 0000.0001)     ;
(PID.TID 0000.0001) PTRACERS_useDWNSLP = /* apply DOWN-SLOPE Flow */
(PID.TID 0000.0001)                   F
(PID.TID 0000.0001)     ;
(PID.TID 0000.0001) PTRACERS_useKPP = /* apply KPP scheme */
(PID.TID 0000.0001)                   T
(PID.TID 0000.0001)     ;
(PID.TID 0000.0001) PTRACERS_ref = /* Reference vertical profile */
(PID.TID 0000.0001)    23 @  0.000000000000000E+00              /* K =  1: 23 */
(PID.TID 0000.0001)     ;
(PID.TID 0000.0001) PTRACERS_EvPrRn =/* tracer conc. in Evap. & Rain */
(PID.TID 0000.0001)                 1.234567000000000E+05
(PID.TID 0000.0001)     ;
(PID.TID 0000.0001)  -----------------------------------
(PID.TID 0000.0001)  tracer number :    3
(PID.TID 0000.0001) PTRACERS_names = /* Tracer short name */
(PID.TID 0000.0001)               'NO2'
(PID.TID 0000.0001)     ;
(PID.TID 0000.0001) PTRACERS_long_names = /* Tracer long name */
(PID.TID 0000.0001)               ''
(PID.TID 0000.0001)     ;
(PID.TID 0000.0001) PTRACERS_ioLabel = /* tracer IO Label */
(PID.TID 0000.0001)               '03'
(PID.TID 0000.0001)     ;
(PID.TID 0000.0001) PTRACERS_advScheme = /* Advection Scheme */
(PID.TID 0000.0001)                      33
(PID.TID 0000.0001)     ;
(PID.TID 0000.0001) PTRACERS_SOM_Advection = /* tracer uses SOM advection scheme */
(PID.TID 0000.0001)                   F
(PID.TID 0000.0001)     ;
(PID.TID 0000.0001) PTRACERS_ImplVertAdv = /* implicit vert. advection flag */
(PID.TID 0000.0001)                   F
(PID.TID 0000.0001)     ;
(PID.TID 0000.0001) PTRACERS_diffKh = /* Laplacian Diffusivity */
(PID.TID 0000.0001)                 0.000000000000000E+00
(PID.TID 0000.0001)     ;
(PID.TID 0000.0001) PTRACERS_diffK4 = /* Biharmonic Diffusivity */
(PID.TID 0000.0001)                 0.000000000000000E+00
(PID.TID 0000.0001)     ;
(PID.TID 0000.0001) PTRACERS_diffKrNr = /* Vertical Diffusivity */
(PID.TID 0000.0001)    23 @  1.000000000000000E-05              /* K =  1: 23 */
(PID.TID 0000.0001)     ;
(PID.TID 0000.0001) PTRACERS_useGMRedi = /* apply GM-Redi */
(PID.TID 0000.0001)                   T
(PID.TID 0000.0001)     ;
(PID.TID 0000.0001) PTRACERS_useDWNSLP = /* apply DOWN-SLOPE Flow */
(PID.TID 0000.0001)                   F
(PID.TID 0000.0001)     ;
(PID.TID 0000.0001) PTRACERS_useKPP = /* apply KPP scheme */
(PID.TID 0000.0001)                   T
(PID.TID 0000.0001)     ;
(PID.TID 0000.0001) PTRACERS_ref = /* Reference vertical profile */
(PID.TID 0000.0001)    23 @  0.000000000000000E+00              /* K =  1: 23 */
(PID.TID 0000.0001)     ;
(PID.TID 0000.0001) PTRACERS_EvPrRn =/* tracer conc. in Evap. & Rain */
(PID.TID 0000.0001)                 1.234567000000000E+05
(PID.TID 0000.0001)     ;
(PID.TID 0000.0001)  -----------------------------------
(PID.TID 0000.0001)  tracer number :    4
(PID.TID 0000.0001) PTRACERS_names = /* Tracer short name */
(PID.TID 0000.0001)               'NO3'
(PID.TID 0000.0001)     ;
(PID.TID 0000.0001) PTRACERS_long_names = /* Tracer long name */
(PID.TID 0000.0001)               ''
(PID.TID 0000.0001)     ;
(PID.TID 0000.0001) PTRACERS_ioLabel = /* tracer IO Label */
(PID.TID 0000.0001)               '04'
(PID.TID 0000.0001)     ;
(PID.TID 0000.0001) PTRACERS_advScheme = /* Advection Scheme */
(PID.TID 0000.0001)                      33
(PID.TID 0000.0001)     ;
(PID.TID 0000.0001) PTRACERS_SOM_Advection = /* tracer uses SOM advection scheme */
(PID.TID 0000.0001)                   F
(PID.TID 0000.0001)     ;
(PID.TID 0000.0001) PTRACERS_ImplVertAdv = /* implicit vert. advection flag */
(PID.TID 0000.0001)                   F
(PID.TID 0000.0001)     ;
(PID.TID 0000.0001) PTRACERS_diffKh = /* Laplacian Diffusivity */
(PID.TID 0000.0001)                 0.000000000000000E+00
(PID.TID 0000.0001)     ;
(PID.TID 0000.0001) PTRACERS_diffK4 = /* Biharmonic Diffusivity */
(PID.TID 0000.0001)                 0.000000000000000E+00
(PID.TID 0000.0001)     ;
(PID.TID 0000.0001) PTRACERS_diffKrNr = /* Vertical Diffusivity */
(PID.TID 0000.0001)    23 @  1.000000000000000E-05              /* K =  1: 23 */
(PID.TID 0000.0001)     ;
(PID.TID 0000.0001) PTRACERS_useGMRedi = /* apply GM-Redi */
(PID.TID 0000.0001)                   T
(PID.TID 0000.0001)     ;
(PID.TID 0000.0001) PTRACERS_useDWNSLP = /* apply DOWN-SLOPE Flow */
(PID.TID 0000.0001)                   F
(PID.TID 0000.0001)     ;
(PID.TID 0000.0001) PTRACERS_useKPP = /* apply KPP scheme */
(PID.TID 0000.0001)                   T
(PID.TID 0000.0001)     ;
(PID.TID 0000.0001) PTRACERS_ref = /* Reference vertical profile */
(PID.TID 0000.0001)    23 @  0.000000000000000E+00              /* K =  1: 23 */
(PID.TID 0000.0001)     ;
(PID.TID 0000.0001) PTRACERS_EvPrRn =/* tracer conc. in Evap. & Rain */
(PID.TID 0000.0001)                 1.234567000000000E+05
(PID.TID 0000.0001)     ;
(PID.TID 0000.0001)  -----------------------------------
(PID.TID 0000.0001)  tracer number :    5
(PID.TID 0000.0001) PTRACERS_names = /* Tracer short name */
(PID.TID 0000.0001)               'PO4'
(PID.TID 0000.0001)     ;
(PID.TID 0000.0001) PTRACERS_long_names = /* Tracer long name */
(PID.TID 0000.0001)               ''
(PID.TID 0000.0001)     ;
(PID.TID 0000.0001) PTRACERS_ioLabel = /* tracer IO Label */
(PID.TID 0000.0001)               '05'
(PID.TID 0000.0001)     ;
(PID.TID 0000.0001) PTRACERS_advScheme = /* Advection Scheme */
(PID.TID 0000.0001)                      33
(PID.TID 0000.0001)     ;
(PID.TID 0000.0001) PTRACERS_SOM_Advection = /* tracer uses SOM advection scheme */
(PID.TID 0000.0001)                   F
(PID.TID 0000.0001)     ;
(PID.TID 0000.0001) PTRACERS_ImplVertAdv = /* implicit vert. advection flag */
(PID.TID 0000.0001)                   F
(PID.TID 0000.0001)     ;
(PID.TID 0000.0001) PTRACERS_diffKh = /* Laplacian Diffusivity */
(PID.TID 0000.0001)                 0.000000000000000E+00
(PID.TID 0000.0001)     ;
(PID.TID 0000.0001) PTRACERS_diffK4 = /* Biharmonic Diffusivity */
(PID.TID 0000.0001)                 0.000000000000000E+00
(PID.TID 0000.0001)     ;
(PID.TID 0000.0001) PTRACERS_diffKrNr = /* Vertical Diffusivity */
(PID.TID 0000.0001)    23 @  1.000000000000000E-05              /* K =  1: 23 */
(PID.TID 0000.0001)     ;
(PID.TID 0000.0001) PTRACERS_useGMRedi = /* apply GM-Redi */
(PID.TID 0000.0001)                   T
(PID.TID 0000.0001)     ;
(PID.TID 0000.0001) PTRACERS_useDWNSLP = /* apply DOWN-SLOPE Flow */
(PID.TID 0000.0001)                   F
(PID.TID 0000.0001)     ;
(PID.TID 0000.0001) PTRACERS_useKPP = /* apply KPP scheme */
(PID.TID 0000.0001)                   T
(PID.TID 0000.0001)     ;
(PID.TID 0000.0001) PTRACERS_ref = /* Reference vertical profile */
(PID.TID 0000.0001)    23 @  0.000000000000000E+00              /* K =  1: 23 */
(PID.TID 0000.0001)     ;
(PID.TID 0000.0001) PTRACERS_EvPrRn =/* tracer conc. in Evap. & Rain */
(PID.TID 0000.0001)                 1.234567000000000E+05
(PID.TID 0000.0001)     ;
(PID.TID 0000.0001)  -----------------------------------
(PID.TID 0000.0001)  tracer number :    6
(PID.TID 0000.0001) PTRACERS_names = /* Tracer short name */
(PID.TID 0000.0001)               'SiO2'
(PID.TID 0000.0001)     ;
(PID.TID 0000.0001) PTRACERS_long_names = /* Tracer long name */
(PID.TID 0000.0001)               ''
(PID.TID 0000.0001)     ;
(PID.TID 0000.0001) PTRACERS_ioLabel = /* tracer IO Label */
(PID.TID 0000.0001)               '06'
(PID.TID 0000.0001)     ;
(PID.TID 0000.0001) PTRACERS_advScheme = /* Advection Scheme */
(PID.TID 0000.0001)                      33
(PID.TID 0000.0001)     ;
(PID.TID 0000.0001) PTRACERS_SOM_Advection = /* tracer uses SOM advection scheme */
(PID.TID 0000.0001)                   F
(PID.TID 0000.0001)     ;
(PID.TID 0000.0001) PTRACERS_ImplVertAdv = /* implicit vert. advection flag */
(PID.TID 0000.0001)                   F
(PID.TID 0000.0001)     ;
(PID.TID 0000.0001) PTRACERS_diffKh = /* Laplacian Diffusivity */
(PID.TID 0000.0001)                 0.000000000000000E+00
(PID.TID 0000.0001)     ;
(PID.TID 0000.0001) PTRACERS_diffK4 = /* Biharmonic Diffusivity */
(PID.TID 0000.0001)                 0.000000000000000E+00
(PID.TID 0000.0001)     ;
(PID.TID 0000.0001) PTRACERS_diffKrNr = /* Vertical Diffusivity */
(PID.TID 0000.0001)    23 @  1.000000000000000E-05              /* K =  1: 23 */
(PID.TID 0000.0001)     ;
(PID.TID 0000.0001) PTRACERS_useGMRedi = /* apply GM-Redi */
(PID.TID 0000.0001)                   T
(PID.TID 0000.0001)     ;
(PID.TID 0000.0001) PTRACERS_useDWNSLP = /* apply DOWN-SLOPE Flow */
(PID.TID 0000.0001)                   F
(PID.TID 0000.0001)     ;
(PID.TID 0000.0001) PTRACERS_useKPP = /* apply KPP scheme */
(PID.TID 0000.0001)                   T
(PID.TID 0000.0001)     ;
(PID.TID 0000.0001) PTRACERS_ref = /* Reference vertical profile */
(PID.TID 0000.0001)    23 @  0.000000000000000E+00              /* K =  1: 23 */
(PID.TID 0000.0001)     ;
(PID.TID 0000.0001) PTRACERS_EvPrRn =/* tracer conc. in Evap. & Rain */
(PID.TID 0000.0001)                 1.234567000000000E+05
(PID.TID 0000.0001)     ;
(PID.TID 0000.0001)  -----------------------------------
(PID.TID 0000.0001)  tracer number :    7
(PID.TID 0000.0001) PTRACERS_names = /* Tracer short name */
(PID.TID 0000.0001)               'FeT'
(PID.TID 0000.0001)     ;
(PID.TID 0000.0001) PTRACERS_long_names = /* Tracer long name */
(PID.TID 0000.0001)               ''
(PID.TID 0000.0001)     ;
(PID.TID 0000.0001) PTRACERS_ioLabel = /* tracer IO Label */
(PID.TID 0000.0001)               '07'
(PID.TID 0000.0001)     ;
(PID.TID 0000.0001) PTRACERS_advScheme = /* Advection Scheme */
(PID.TID 0000.0001)                      33
(PID.TID 0000.0001)     ;
(PID.TID 0000.0001) PTRACERS_SOM_Advection = /* tracer uses SOM advection scheme */
(PID.TID 0000.0001)                   F
(PID.TID 0000.0001)     ;
(PID.TID 0000.0001) PTRACERS_ImplVertAdv = /* implicit vert. advection flag */
(PID.TID 0000.0001)                   F
(PID.TID 0000.0001)     ;
(PID.TID 0000.0001) PTRACERS_diffKh = /* Laplacian Diffusivity */
(PID.TID 0000.0001)                 0.000000000000000E+00
(PID.TID 0000.0001)     ;
(PID.TID 0000.0001) PTRACERS_diffK4 = /* Biharmonic Diffusivity */
(PID.TID 0000.0001)                 0.000000000000000E+00
(PID.TID 0000.0001)     ;
(PID.TID 0000.0001) PTRACERS_diffKrNr = /* Vertical Diffusivity */
(PID.TID 0000.0001)    23 @  1.000000000000000E-05              /* K =  1: 23 */
(PID.TID 0000.0001)     ;
(PID.TID 0000.0001) PTRACERS_useGMRedi = /* apply GM-Redi */
(PID.TID 0000.0001)                   T
(PID.TID 0000.0001)     ;
(PID.TID 0000.0001) PTRACERS_useDWNSLP = /* apply DOWN-SLOPE Flow */
(PID.TID 0000.0001)                   F
(PID.TID 0000.0001)     ;
(PID.TID 0000.0001) PTRACERS_useKPP = /* apply KPP scheme */
(PID.TID 0000.0001)                   T
(PID.TID 0000.0001)     ;
(PID.TID 0000.0001) PTRACERS_ref = /* Reference vertical profile */
(PID.TID 0000.0001)    23 @  0.000000000000000E+00              /* K =  1: 23 */
(PID.TID 0000.0001)     ;
(PID.TID 0000.0001) PTRACERS_EvPrRn =/* tracer conc. in Evap. & Rain */
(PID.TID 0000.0001)                 1.234567000000000E+05
(PID.TID 0000.0001)     ;
(PID.TID 0000.0001)  -----------------------------------
(PID.TID 0000.0001)  tracer number :    8
(PID.TID 0000.0001) PTRACERS_names = /* Tracer short name */
(PID.TID 0000.0001)               'DOC'
(PID.TID 0000.0001)     ;
(PID.TID 0000.0001) PTRACERS_long_names = /* Tracer long name */
(PID.TID 0000.0001)               ''
(PID.TID 0000.0001)     ;
(PID.TID 0000.0001) PTRACERS_ioLabel = /* tracer IO Label */
(PID.TID 0000.0001)               '08'
(PID.TID 0000.0001)     ;
(PID.TID 0000.0001) PTRACERS_advScheme = /* Advection Scheme */
(PID.TID 0000.0001)                      33
(PID.TID 0000.0001)     ;
(PID.TID 0000.0001) PTRACERS_SOM_Advection = /* tracer uses SOM advection scheme */
(PID.TID 0000.0001)                   F
(PID.TID 0000.0001)     ;
(PID.TID 0000.0001) PTRACERS_ImplVertAdv = /* implicit vert. advection flag */
(PID.TID 0000.0001)                   F
(PID.TID 0000.0001)     ;
(PID.TID 0000.0001) PTRACERS_diffKh = /* Laplacian Diffusivity */
(PID.TID 0000.0001)                 0.000000000000000E+00
(PID.TID 0000.0001)     ;
(PID.TID 0000.0001) PTRACERS_diffK4 = /* Biharmonic Diffusivity */
(PID.TID 0000.0001)                 0.000000000000000E+00
(PID.TID 0000.0001)     ;
(PID.TID 0000.0001) PTRACERS_diffKrNr = /* Vertical Diffusivity */
(PID.TID 0000.0001)    23 @  1.000000000000000E-05              /* K =  1: 23 */
(PID.TID 0000.0001)     ;
(PID.TID 0000.0001) PTRACERS_useGMRedi = /* apply GM-Redi */
(PID.TID 0000.0001)                   T
(PID.TID 0000.0001)     ;
(PID.TID 0000.0001) PTRACERS_useDWNSLP = /* apply DOWN-SLOPE Flow */
(PID.TID 0000.0001)                   F
(PID.TID 0000.0001)     ;
(PID.TID 0000.0001) PTRACERS_useKPP = /* apply KPP scheme */
(PID.TID 0000.0001)                   T
(PID.TID 0000.0001)     ;
(PID.TID 0000.0001) PTRACERS_ref = /* Reference vertical profile */
(PID.TID 0000.0001)    23 @  0.000000000000000E+00              /* K =  1: 23 */
(PID.TID 0000.0001)     ;
(PID.TID 0000.0001) PTRACERS_EvPrRn =/* tracer conc. in Evap. & Rain */
(PID.TID 0000.0001)                 1.234567000000000E+05
(PID.TID 0000.0001)     ;
(PID.TID 0000.0001)  -----------------------------------
(PID.TID 0000.0001)  tracer number :    9
(PID.TID 0000.0001) PTRACERS_names = /* Tracer short name */
(PID.TID 0000.0001)               'DON'
(PID.TID 0000.0001)     ;
(PID.TID 0000.0001) PTRACERS_long_names = /* Tracer long name */
(PID.TID 0000.0001)               ''
(PID.TID 0000.0001)     ;
(PID.TID 0000.0001) PTRACERS_ioLabel = /* tracer IO Label */
(PID.TID 0000.0001)               '09'
(PID.TID 0000.0001)     ;
(PID.TID 0000.0001) PTRACERS_advScheme = /* Advection Scheme */
(PID.TID 0000.0001)                      33
(PID.TID 0000.0001)     ;
(PID.TID 0000.0001) PTRACERS_SOM_Advection = /* tracer uses SOM advection scheme */
(PID.TID 0000.0001)                   F
(PID.TID 0000.0001)     ;
(PID.TID 0000.0001) PTRACERS_ImplVertAdv = /* implicit vert. advection flag */
(PID.TID 0000.0001)                   F
(PID.TID 0000.0001)     ;
(PID.TID 0000.0001) PTRACERS_diffKh = /* Laplacian Diffusivity */
(PID.TID 0000.0001)                 0.000000000000000E+00
(PID.TID 0000.0001)     ;
(PID.TID 0000.0001) PTRACERS_diffK4 = /* Biharmonic Diffusivity */
(PID.TID 0000.0001)                 0.000000000000000E+00
(PID.TID 0000.0001)     ;
(PID.TID 0000.0001) PTRACERS_diffKrNr = /* Vertical Diffusivity */
(PID.TID 0000.0001)    23 @  1.000000000000000E-05              /* K =  1: 23 */
(PID.TID 0000.0001)     ;
(PID.TID 0000.0001) PTRACERS_useGMRedi = /* apply GM-Redi */
(PID.TID 0000.0001)                   T
(PID.TID 0000.0001)     ;
(PID.TID 0000.0001) PTRACERS_useDWNSLP = /* apply DOWN-SLOPE Flow */
(PID.TID 0000.0001)                   F
(PID.TID 0000.0001)     ;
(PID.TID 0000.0001) PTRACERS_useKPP = /* apply KPP scheme */
(PID.TID 0000.0001)                   T
(PID.TID 0000.0001)     ;
(PID.TID 0000.0001) PTRACERS_ref = /* Reference vertical profile */
(PID.TID 0000.0001)    23 @  0.000000000000000E+00              /* K =  1: 23 */
(PID.TID 0000.0001)     ;
(PID.TID 0000.0001) PTRACERS_EvPrRn =/* tracer conc. in Evap. & Rain */
(PID.TID 0000.0001)                 1.234567000000000E+05
(PID.TID 0000.0001)     ;
(PID.TID 0000.0001)  -----------------------------------
(PID.TID 0000.0001)  tracer number :   10
(PID.TID 0000.0001) PTRACERS_names = /* Tracer short name */
(PID.TID 0000.0001)               'DOP'
(PID.TID 0000.0001)     ;
(PID.TID 0000.0001) PTRACERS_long_names = /* Tracer long name */
(PID.TID 0000.0001)               ''
(PID.TID 0000.0001)     ;
(PID.TID 0000.0001) PTRACERS_ioLabel = /* tracer IO Label */
(PID.TID 0000.0001)               '10'
(PID.TID 0000.0001)     ;
(PID.TID 0000.0001) PTRACERS_advScheme = /* Advection Scheme */
(PID.TID 0000.0001)                      33
(PID.TID 0000.0001)     ;
(PID.TID 0000.0001) PTRACERS_SOM_Advection = /* tracer uses SOM advection scheme */
(PID.TID 0000.0001)                   F
(PID.TID 0000.0001)     ;
(PID.TID 0000.0001) PTRACERS_ImplVertAdv = /* implicit vert. advection flag */
(PID.TID 0000.0001)                   F
(PID.TID 0000.0001)     ;
(PID.TID 0000.0001) PTRACERS_diffKh = /* Laplacian Diffusivity */
(PID.TID 0000.0001)                 0.000000000000000E+00
(PID.TID 0000.0001)     ;
(PID.TID 0000.0001) PTRACERS_diffK4 = /* Biharmonic Diffusivity */
(PID.TID 0000.0001)                 0.000000000000000E+00
(PID.TID 0000.0001)     ;
(PID.TID 0000.0001) PTRACERS_diffKrNr = /* Vertical Diffusivity */
(PID.TID 0000.0001)    23 @  1.000000000000000E-05              /* K =  1: 23 */
(PID.TID 0000.0001)     ;
(PID.TID 0000.0001) PTRACERS_useGMRedi = /* apply GM-Redi */
(PID.TID 0000.0001)                   T
(PID.TID 0000.0001)     ;
(PID.TID 0000.0001) PTRACERS_useDWNSLP = /* apply DOWN-SLOPE Flow */
(PID.TID 0000.0001)                   F
(PID.TID 0000.0001)     ;
(PID.TID 0000.0001) PTRACERS_useKPP = /* apply KPP scheme */
(PID.TID 0000.0001)                   T
(PID.TID 0000.0001)     ;
(PID.TID 0000.0001) PTRACERS_ref = /* Reference vertical profile */
(PID.TID 0000.0001)    23 @  0.000000000000000E+00              /* K =  1: 23 */
(PID.TID 0000.0001)     ;
(PID.TID 0000.0001) PTRACERS_EvPrRn =/* tracer conc. in Evap. & Rain */
(PID.TID 0000.0001)                 1.234567000000000E+05
(PID.TID 0000.0001)     ;
(PID.TID 0000.0001)  -----------------------------------
(PID.TID 0000.0001)  tracer number :   11
(PID.TID 0000.0001) PTRACERS_names = /* Tracer short name */
(PID.TID 0000.0001)               'DOFe'
(PID.TID 0000.0001)     ;
(PID.TID 0000.0001) PTRACERS_long_names = /* Tracer long name */
(PID.TID 0000.0001)               ''
(PID.TID 0000.0001)     ;
(PID.TID 0000.0001) PTRACERS_ioLabel = /* tracer IO Label */
(PID.TID 0000.0001)               '11'
(PID.TID 0000.0001)     ;
(PID.TID 0000.0001) PTRACERS_advScheme = /* Advection Scheme */
(PID.TID 0000.0001)                      33
(PID.TID 0000.0001)     ;
(PID.TID 0000.0001) PTRACERS_SOM_Advection = /* tracer uses SOM advection scheme */
(PID.TID 0000.0001)                   F
(PID.TID 0000.0001)     ;
(PID.TID 0000.0001) PTRACERS_ImplVertAdv = /* implicit vert. advection flag */
(PID.TID 0000.0001)                   F
(PID.TID 0000.0001)     ;
(PID.TID 0000.0001) PTRACERS_diffKh = /* Laplacian Diffusivity */
(PID.TID 0000.0001)                 0.000000000000000E+00
(PID.TID 0000.0001)     ;
(PID.TID 0000.0001) PTRACERS_diffK4 = /* Biharmonic Diffusivity */
(PID.TID 0000.0001)                 0.000000000000000E+00
(PID.TID 0000.0001)     ;
(PID.TID 0000.0001) PTRACERS_diffKrNr = /* Vertical Diffusivity */
(PID.TID 0000.0001)    23 @  1.000000000000000E-05              /* K =  1: 23 */
(PID.TID 0000.0001)     ;
(PID.TID 0000.0001) PTRACERS_useGMRedi = /* apply GM-Redi */
(PID.TID 0000.0001)                   T
(PID.TID 0000.0001)     ;
(PID.TID 0000.0001) PTRACERS_useDWNSLP = /* apply DOWN-SLOPE Flow */
(PID.TID 0000.0001)                   F
(PID.TID 0000.0001)     ;
(PID.TID 0000.0001) PTRACERS_useKPP = /* apply KPP scheme */
(PID.TID 0000.0001)                   T
(PID.TID 0000.0001)     ;
(PID.TID 0000.0001) PTRACERS_ref = /* Reference vertical profile */
(PID.TID 0000.0001)    23 @  0.000000000000000E+00              /* K =  1: 23 */
(PID.TID 0000.0001)     ;
(PID.TID 0000.0001) PTRACERS_EvPrRn =/* tracer conc. in Evap. & Rain */
(PID.TID 0000.0001)                 1.234567000000000E+05
(PID.TID 0000.0001)     ;
(PID.TID 0000.0001)  -----------------------------------
(PID.TID 0000.0001)  tracer number :   12
(PID.TID 0000.0001) PTRACERS_names = /* Tracer short name */
(PID.TID 0000.0001)               'POC'
(PID.TID 0000.0001)     ;
(PID.TID 0000.0001) PTRACERS_long_names = /* Tracer long name */
(PID.TID 0000.0001)               ''
(PID.TID 0000.0001)     ;
(PID.TID 0000.0001) PTRACERS_ioLabel = /* tracer IO Label */
(PID.TID 0000.0001)               '12'
(PID.TID 0000.0001)     ;
(PID.TID 0000.0001) PTRACERS_advScheme = /* Advection Scheme */
(PID.TID 0000.0001)                      33
(PID.TID 0000.0001)     ;
(PID.TID 0000.0001) PTRACERS_SOM_Advection = /* tracer uses SOM advection scheme */
(PID.TID 0000.0001)                   F
(PID.TID 0000.0001)     ;
(PID.TID 0000.0001) PTRACERS_ImplVertAdv = /* implicit vert. advection flag */
(PID.TID 0000.0001)                   F
(PID.TID 0000.0001)     ;
(PID.TID 0000.0001) PTRACERS_diffKh = /* Laplacian Diffusivity */
(PID.TID 0000.0001)                 0.000000000000000E+00
(PID.TID 0000.0001)     ;
(PID.TID 0000.0001) PTRACERS_diffK4 = /* Biharmonic Diffusivity */
(PID.TID 0000.0001)                 0.000000000000000E+00
(PID.TID 0000.0001)     ;
(PID.TID 0000.0001) PTRACERS_diffKrNr = /* Vertical Diffusivity */
(PID.TID 0000.0001)    23 @  1.000000000000000E-05              /* K =  1: 23 */
(PID.TID 0000.0001)     ;
(PID.TID 0000.0001) PTRACERS_useGMRedi = /* apply GM-Redi */
(PID.TID 0000.0001)                   T
(PID.TID 0000.0001)     ;
(PID.TID 0000.0001) PTRACERS_useDWNSLP = /* apply DOWN-SLOPE Flow */
(PID.TID 0000.0001)                   F
(PID.TID 0000.0001)     ;
(PID.TID 0000.0001) PTRACERS_useKPP = /* apply KPP scheme */
(PID.TID 0000.0001)                   T
(PID.TID 0000.0001)     ;
(PID.TID 0000.0001) PTRACERS_ref = /* Reference vertical profile */
(PID.TID 0000.0001)    23 @  0.000000000000000E+00              /* K =  1: 23 */
(PID.TID 0000.0001)     ;
(PID.TID 0000.0001) PTRACERS_EvPrRn =/* tracer conc. in Evap. & Rain */
(PID.TID 0000.0001)                 1.234567000000000E+05
(PID.TID 0000.0001)     ;
(PID.TID 0000.0001)  -----------------------------------
(PID.TID 0000.0001)  tracer number :   13
(PID.TID 0000.0001) PTRACERS_names = /* Tracer short name */
(PID.TID 0000.0001)               'PON'
(PID.TID 0000.0001)     ;
(PID.TID 0000.0001) PTRACERS_long_names = /* Tracer long name */
(PID.TID 0000.0001)               ''
(PID.TID 0000.0001)     ;
(PID.TID 0000.0001) PTRACERS_ioLabel = /* tracer IO Label */
(PID.TID 0000.0001)               '13'
(PID.TID 0000.0001)     ;
(PID.TID 0000.0001) PTRACERS_advScheme = /* Advection Scheme */
(PID.TID 0000.0001)                      33
(PID.TID 0000.0001)     ;
(PID.TID 0000.0001) PTRACERS_SOM_Advection = /* tracer uses SOM advection scheme */
(PID.TID 0000.0001)                   F
(PID.TID 0000.0001)     ;
(PID.TID 0000.0001) PTRACERS_ImplVertAdv = /* implicit vert. advection flag */
(PID.TID 0000.0001)                   F
(PID.TID 0000.0001)     ;
(PID.TID 0000.0001) PTRACERS_diffKh = /* Laplacian Diffusivity */
(PID.TID 0000.0001)                 0.000000000000000E+00
(PID.TID 0000.0001)     ;
(PID.TID 0000.0001) PTRACERS_diffK4 = /* Biharmonic Diffusivity */
(PID.TID 0000.0001)                 0.000000000000000E+00
(PID.TID 0000.0001)     ;
(PID.TID 0000.0001) PTRACERS_diffKrNr = /* Vertical Diffusivity */
(PID.TID 0000.0001)    23 @  1.000000000000000E-05              /* K =  1: 23 */
(PID.TID 0000.0001)     ;
(PID.TID 0000.0001) PTRACERS_useGMRedi = /* apply GM-Redi */
(PID.TID 0000.0001)                   T
(PID.TID 0000.0001)     ;
(PID.TID 0000.0001) PTRACERS_useDWNSLP = /* apply DOWN-SLOPE Flow */
(PID.TID 0000.0001)                   F
(PID.TID 0000.0001)     ;
(PID.TID 0000.0001) PTRACERS_useKPP = /* apply KPP scheme */
(PID.TID 0000.0001)                   T
(PID.TID 0000.0001)     ;
(PID.TID 0000.0001) PTRACERS_ref = /* Reference vertical profile */
(PID.TID 0000.0001)    23 @  0.000000000000000E+00              /* K =  1: 23 */
(PID.TID 0000.0001)     ;
(PID.TID 0000.0001) PTRACERS_EvPrRn =/* tracer conc. in Evap. & Rain */
(PID.TID 0000.0001)                 1.234567000000000E+05
(PID.TID 0000.0001)     ;
(PID.TID 0000.0001)  -----------------------------------
(PID.TID 0000.0001)  tracer number :   14
(PID.TID 0000.0001) PTRACERS_names = /* Tracer short name */
(PID.TID 0000.0001)               'POP'
(PID.TID 0000.0001)     ;
(PID.TID 0000.0001) PTRACERS_long_names = /* Tracer long name */
(PID.TID 0000.0001)               ''
(PID.TID 0000.0001)     ;
(PID.TID 0000.0001) PTRACERS_ioLabel = /* tracer IO Label */
(PID.TID 0000.0001)               '14'
(PID.TID 0000.0001)     ;
(PID.TID 0000.0001) PTRACERS_advScheme = /* Advection Scheme */
(PID.TID 0000.0001)                      33
(PID.TID 0000.0001)     ;
(PID.TID 0000.0001) PTRACERS_SOM_Advection = /* tracer uses SOM advection scheme */
(PID.TID 0000.0001)                   F
(PID.TID 0000.0001)     ;
(PID.TID 0000.0001) PTRACERS_ImplVertAdv = /* implicit vert. advection flag */
(PID.TID 0000.0001)                   F
(PID.TID 0000.0001)     ;
(PID.TID 0000.0001) PTRACERS_diffKh = /* Laplacian Diffusivity */
(PID.TID 0000.0001)                 0.000000000000000E+00
(PID.TID 0000.0001)     ;
(PID.TID 0000.0001) PTRACERS_diffK4 = /* Biharmonic Diffusivity */
(PID.TID 0000.0001)                 0.000000000000000E+00
(PID.TID 0000.0001)     ;
(PID.TID 0000.0001) PTRACERS_diffKrNr = /* Vertical Diffusivity */
(PID.TID 0000.0001)    23 @  1.000000000000000E-05              /* K =  1: 23 */
(PID.TID 0000.0001)     ;
(PID.TID 0000.0001) PTRACERS_useGMRedi = /* apply GM-Redi */
(PID.TID 0000.0001)                   T
(PID.TID 0000.0001)     ;
(PID.TID 0000.0001) PTRACERS_useDWNSLP = /* apply DOWN-SLOPE Flow */
(PID.TID 0000.0001)                   F
(PID.TID 0000.0001)     ;
(PID.TID 0000.0001) PTRACERS_useKPP = /* apply KPP scheme */
(PID.TID 0000.0001)                   T
(PID.TID 0000.0001)     ;
(PID.TID 0000.0001) PTRACERS_ref = /* Reference vertical profile */
(PID.TID 0000.0001)    23 @  0.000000000000000E+00              /* K =  1: 23 */
(PID.TID 0000.0001)     ;
(PID.TID 0000.0001) PTRACERS_EvPrRn =/* tracer conc. in Evap. & Rain */
(PID.TID 0000.0001)                 1.234567000000000E+05
(PID.TID 0000.0001)     ;
(PID.TID 0000.0001)  -----------------------------------
(PID.TID 0000.0001)  tracer number :   15
(PID.TID 0000.0001) PTRACERS_names = /* Tracer short name */
(PID.TID 0000.0001)               'POSi'
(PID.TID 0000.0001)     ;
(PID.TID 0000.0001) PTRACERS_long_names = /* Tracer long name */
(PID.TID 0000.0001)               ''
(PID.TID 0000.0001)     ;
(PID.TID 0000.0001) PTRACERS_ioLabel = /* tracer IO Label */
(PID.TID 0000.0001)               '15'
(PID.TID 0000.0001)     ;
(PID.TID 0000.0001) PTRACERS_advScheme = /* Advection Scheme */
(PID.TID 0000.0001)                      33
(PID.TID 0000.0001)     ;
(PID.TID 0000.0001) PTRACERS_SOM_Advection = /* tracer uses SOM advection scheme */
(PID.TID 0000.0001)                   F
(PID.TID 0000.0001)     ;
(PID.TID 0000.0001) PTRACERS_ImplVertAdv = /* implicit vert. advection flag */
(PID.TID 0000.0001)                   F
(PID.TID 0000.0001)     ;
(PID.TID 0000.0001) PTRACERS_diffKh = /* Laplacian Diffusivity */
(PID.TID 0000.0001)                 0.000000000000000E+00
(PID.TID 0000.0001)     ;
(PID.TID 0000.0001) PTRACERS_diffK4 = /* Biharmonic Diffusivity */
(PID.TID 0000.0001)                 0.000000000000000E+00
(PID.TID 0000.0001)     ;
(PID.TID 0000.0001) PTRACERS_diffKrNr = /* Vertical Diffusivity */
(PID.TID 0000.0001)    23 @  1.000000000000000E-05              /* K =  1: 23 */
(PID.TID 0000.0001)     ;
(PID.TID 0000.0001) PTRACERS_useGMRedi = /* apply GM-Redi */
(PID.TID 0000.0001)                   T
(PID.TID 0000.0001)     ;
(PID.TID 0000.0001) PTRACERS_useDWNSLP = /* apply DOWN-SLOPE Flow */
(PID.TID 0000.0001)                   F
(PID.TID 0000.0001)     ;
(PID.TID 0000.0001) PTRACERS_useKPP = /* apply KPP scheme */
(PID.TID 0000.0001)                   T
(PID.TID 0000.0001)     ;
(PID.TID 0000.0001) PTRACERS_ref = /* Reference vertical profile */
(PID.TID 0000.0001)    23 @  0.000000000000000E+00              /* K =  1: 23 */
(PID.TID 0000.0001)     ;
(PID.TID 0000.0001) PTRACERS_EvPrRn =/* tracer conc. in Evap. & Rain */
(PID.TID 0000.0001)                 1.234567000000000E+05
(PID.TID 0000.0001)     ;
(PID.TID 0000.0001)  -----------------------------------
(PID.TID 0000.0001)  tracer number :   16
(PID.TID 0000.0001) PTRACERS_names = /* Tracer short name */
(PID.TID 0000.0001)               'POFe'
(PID.TID 0000.0001)     ;
(PID.TID 0000.0001) PTRACERS_long_names = /* Tracer long name */
(PID.TID 0000.0001)               ''
(PID.TID 0000.0001)     ;
(PID.TID 0000.0001) PTRACERS_ioLabel = /* tracer IO Label */
(PID.TID 0000.0001)               '16'
(PID.TID 0000.0001)     ;
(PID.TID 0000.0001) PTRACERS_advScheme = /* Advection Scheme */
(PID.TID 0000.0001)                      33
(PID.TID 0000.0001)     ;
(PID.TID 0000.0001) PTRACERS_SOM_Advection = /* tracer uses SOM advection scheme */
(PID.TID 0000.0001)                   F
(PID.TID 0000.0001)     ;
(PID.TID 0000.0001) PTRACERS_ImplVertAdv = /* implicit vert. advection flag */
(PID.TID 0000.0001)                   F
(PID.TID 0000.0001)     ;
(PID.TID 0000.0001) PTRACERS_diffKh = /* Laplacian Diffusivity */
(PID.TID 0000.0001)                 0.000000000000000E+00
(PID.TID 0000.0001)     ;
(PID.TID 0000.0001) PTRACERS_diffK4 = /* Biharmonic Diffusivity */
(PID.TID 0000.0001)                 0.000000000000000E+00
(PID.TID 0000.0001)     ;
(PID.TID 0000.0001) PTRACERS_diffKrNr = /* Vertical Diffusivity */
(PID.TID 0000.0001)    23 @  1.000000000000000E-05              /* K =  1: 23 */
(PID.TID 0000.0001)     ;
(PID.TID 0000.0001) PTRACERS_useGMRedi = /* apply GM-Redi */
(PID.TID 0000.0001)                   T
(PID.TID 0000.0001)     ;
(PID.TID 0000.0001) PTRACERS_useDWNSLP = /* apply DOWN-SLOPE Flow */
(PID.TID 0000.0001)                   F
(PID.TID 0000.0001)     ;
(PID.TID 0000.0001) PTRACERS_useKPP = /* apply KPP scheme */
(PID.TID 0000.0001)                   T
(PID.TID 0000.0001)     ;
(PID.TID 0000.0001) PTRACERS_ref = /* Reference vertical profile */
(PID.TID 0000.0001)    23 @  0.000000000000000E+00              /* K =  1: 23 */
(PID.TID 0000.0001)     ;
(PID.TID 0000.0001) PTRACERS_EvPrRn =/* tracer conc. in Evap. & Rain */
(PID.TID 0000.0001)                 1.234567000000000E+05
(PID.TID 0000.0001)     ;
(PID.TID 0000.0001)  -----------------------------------
(PID.TID 0000.0001)  tracer number :   17
(PID.TID 0000.0001) PTRACERS_names = /* Tracer short name */
(PID.TID 0000.0001)               'PIC'
(PID.TID 0000.0001)     ;
(PID.TID 0000.0001) PTRACERS_long_names = /* Tracer long name */
(PID.TID 0000.0001)               ''
(PID.TID 0000.0001)     ;
(PID.TID 0000.0001) PTRACERS_ioLabel = /* tracer IO Label */
(PID.TID 0000.0001)               '17'
(PID.TID 0000.0001)     ;
(PID.TID 0000.0001) PTRACERS_advScheme = /* Advection Scheme */
(PID.TID 0000.0001)                      33
(PID.TID 0000.0001)     ;
(PID.TID 0000.0001) PTRACERS_SOM_Advection = /* tracer uses SOM advection scheme */
(PID.TID 0000.0001)                   F
(PID.TID 0000.0001)     ;
(PID.TID 0000.0001) PTRACERS_ImplVertAdv = /* implicit vert. advection flag */
(PID.TID 0000.0001)                   F
(PID.TID 0000.0001)     ;
(PID.TID 0000.0001) PTRACERS_diffKh = /* Laplacian Diffusivity */
(PID.TID 0000.0001)                 0.000000000000000E+00
(PID.TID 0000.0001)     ;
(PID.TID 0000.0001) PTRACERS_diffK4 = /* Biharmonic Diffusivity */
(PID.TID 0000.0001)                 0.000000000000000E+00
(PID.TID 0000.0001)     ;
(PID.TID 0000.0001) PTRACERS_diffKrNr = /* Vertical Diffusivity */
(PID.TID 0000.0001)    23 @  1.000000000000000E-05              /* K =  1: 23 */
(PID.TID 0000.0001)     ;
(PID.TID 0000.0001) PTRACERS_useGMRedi = /* apply GM-Redi */
(PID.TID 0000.0001)                   T
(PID.TID 0000.0001)     ;
(PID.TID 0000.0001) PTRACERS_useDWNSLP = /* apply DOWN-SLOPE Flow */
(PID.TID 0000.0001)                   F
(PID.TID 0000.0001)     ;
(PID.TID 0000.0001) PTRACERS_useKPP = /* apply KPP scheme */
(PID.TID 0000.0001)                   T
(PID.TID 0000.0001)     ;
(PID.TID 0000.0001) PTRACERS_ref = /* Reference vertical profile */
(PID.TID 0000.0001)    23 @  0.000000000000000E+00              /* K =  1: 23 */
(PID.TID 0000.0001)     ;
(PID.TID 0000.0001) PTRACERS_EvPrRn =/* tracer conc. in Evap. & Rain */
(PID.TID 0000.0001)                 1.234567000000000E+05
(PID.TID 0000.0001)     ;
(PID.TID 0000.0001)  -----------------------------------
(PID.TID 0000.0001)  tracer number :   18
(PID.TID 0000.0001) PTRACERS_names = /* Tracer short name */
(PID.TID 0000.0001)               'ALK'
(PID.TID 0000.0001)     ;
(PID.TID 0000.0001) PTRACERS_long_names = /* Tracer long name */
(PID.TID 0000.0001)               ''
(PID.TID 0000.0001)     ;
(PID.TID 0000.0001) PTRACERS_ioLabel = /* tracer IO Label */
(PID.TID 0000.0001)               '18'
(PID.TID 0000.0001)     ;
(PID.TID 0000.0001) PTRACERS_advScheme = /* Advection Scheme */
(PID.TID 0000.0001)                      33
(PID.TID 0000.0001)     ;
(PID.TID 0000.0001) PTRACERS_SOM_Advection = /* tracer uses SOM advection scheme */
(PID.TID 0000.0001)                   F
(PID.TID 0000.0001)     ;
(PID.TID 0000.0001) PTRACERS_ImplVertAdv = /* implicit vert. advection flag */
(PID.TID 0000.0001)                   F
(PID.TID 0000.0001)     ;
(PID.TID 0000.0001) PTRACERS_diffKh = /* Laplacian Diffusivity */
(PID.TID 0000.0001)                 0.000000000000000E+00
(PID.TID 0000.0001)     ;
(PID.TID 0000.0001) PTRACERS_diffK4 = /* Biharmonic Diffusivity */
(PID.TID 0000.0001)                 0.000000000000000E+00
(PID.TID 0000.0001)     ;
(PID.TID 0000.0001) PTRACERS_diffKrNr = /* Vertical Diffusivity */
(PID.TID 0000.0001)    23 @  1.000000000000000E-05              /* K =  1: 23 */
(PID.TID 0000.0001)     ;
(PID.TID 0000.0001) PTRACERS_useGMRedi = /* apply GM-Redi */
(PID.TID 0000.0001)                   T
(PID.TID 0000.0001)     ;
(PID.TID 0000.0001) PTRACERS_useDWNSLP = /* apply DOWN-SLOPE Flow */
(PID.TID 0000.0001)                   F
(PID.TID 0000.0001)     ;
(PID.TID 0000.0001) PTRACERS_useKPP = /* apply KPP scheme */
(PID.TID 0000.0001)                   T
(PID.TID 0000.0001)     ;
(PID.TID 0000.0001) PTRACERS_ref = /* Reference vertical profile */
(PID.TID 0000.0001)    23 @  0.000000000000000E+00              /* K =  1: 23 */
(PID.TID 0000.0001)     ;
(PID.TID 0000.0001) PTRACERS_EvPrRn =/* tracer conc. in Evap. & Rain */
(PID.TID 0000.0001)                 1.234567000000000E+05
(PID.TID 0000.0001)     ;
(PID.TID 0000.0001)  -----------------------------------
(PID.TID 0000.0001)  tracer number :   19
(PID.TID 0000.0001) PTRACERS_names = /* Tracer short name */
(PID.TID 0000.0001)               'O2'
(PID.TID 0000.0001)     ;
(PID.TID 0000.0001) PTRACERS_long_names = /* Tracer long name */
(PID.TID 0000.0001)               ''
(PID.TID 0000.0001)     ;
(PID.TID 0000.0001) PTRACERS_ioLabel = /* tracer IO Label */
(PID.TID 0000.0001)               '19'
(PID.TID 0000.0001)     ;
(PID.TID 0000.0001) PTRACERS_advScheme = /* Advection Scheme */
(PID.TID 0000.0001)                      33
(PID.TID 0000.0001)     ;
(PID.TID 0000.0001) PTRACERS_SOM_Advection = /* tracer uses SOM advection scheme */
(PID.TID 0000.0001)                   F
(PID.TID 0000.0001)     ;
(PID.TID 0000.0001) PTRACERS_ImplVertAdv = /* implicit vert. advection flag */
(PID.TID 0000.0001)                   F
(PID.TID 0000.0001)     ;
(PID.TID 0000.0001) PTRACERS_diffKh = /* Laplacian Diffusivity */
(PID.TID 0000.0001)                 0.000000000000000E+00
(PID.TID 0000.0001)     ;
(PID.TID 0000.0001) PTRACERS_diffK4 = /* Biharmonic Diffusivity */
(PID.TID 0000.0001)                 0.000000000000000E+00
(PID.TID 0000.0001)     ;
(PID.TID 0000.0001) PTRACERS_diffKrNr = /* Vertical Diffusivity */
(PID.TID 0000.0001)    23 @  1.000000000000000E-05              /* K =  1: 23 */
(PID.TID 0000.0001)     ;
(PID.TID 0000.0001) PTRACERS_useGMRedi = /* apply GM-Redi */
(PID.TID 0000.0001)                   T
(PID.TID 0000.0001)     ;
(PID.TID 0000.0001) PTRACERS_useDWNSLP = /* apply DOWN-SLOPE Flow */
(PID.TID 0000.0001)                   F
(PID.TID 0000.0001)     ;
(PID.TID 0000.0001) PTRACERS_useKPP = /* apply KPP scheme */
(PID.TID 0000.0001)                   T
(PID.TID 0000.0001)     ;
(PID.TID 0000.0001) PTRACERS_ref = /* Reference vertical profile */
(PID.TID 0000.0001)    23 @  0.000000000000000E+00              /* K =  1: 23 */
(PID.TID 0000.0001)     ;
(PID.TID 0000.0001) PTRACERS_EvPrRn =/* tracer conc. in Evap. & Rain */
(PID.TID 0000.0001)                 1.234567000000000E+05
(PID.TID 0000.0001)     ;
(PID.TID 0000.0001)  -----------------------------------
(PID.TID 0000.0001)  tracer number :   20
(PID.TID 0000.0001) PTRACERS_names = /* Tracer short name */
(PID.TID 0000.0001)               'c01'
(PID.TID 0000.0001)     ;
(PID.TID 0000.0001) PTRACERS_long_names = /* Tracer long name */
(PID.TID 0000.0001)               ''
(PID.TID 0000.0001)     ;
(PID.TID 0000.0001) PTRACERS_ioLabel = /* tracer IO Label */
(PID.TID 0000.0001)               '20'
(PID.TID 0000.0001)     ;
(PID.TID 0000.0001) PTRACERS_advScheme = /* Advection Scheme */
(PID.TID 0000.0001)                      33
(PID.TID 0000.0001)     ;
(PID.TID 0000.0001) PTRACERS_SOM_Advection = /* tracer uses SOM advection scheme */
(PID.TID 0000.0001)                   F
(PID.TID 0000.0001)     ;
(PID.TID 0000.0001) PTRACERS_ImplVertAdv = /* implicit vert. advection flag */
(PID.TID 0000.0001)                   F
(PID.TID 0000.0001)     ;
(PID.TID 0000.0001) PTRACERS_diffKh = /* Laplacian Diffusivity */
(PID.TID 0000.0001)                 0.000000000000000E+00
(PID.TID 0000.0001)     ;
(PID.TID 0000.0001) PTRACERS_diffK4 = /* Biharmonic Diffusivity */
(PID.TID 0000.0001)                 0.000000000000000E+00
(PID.TID 0000.0001)     ;
(PID.TID 0000.0001) PTRACERS_diffKrNr = /* Vertical Diffusivity */
(PID.TID 0000.0001)    23 @  1.000000000000000E-05              /* K =  1: 23 */
(PID.TID 0000.0001)     ;
(PID.TID 0000.0001) PTRACERS_useGMRedi = /* apply GM-Redi */
(PID.TID 0000.0001)                   T
(PID.TID 0000.0001)     ;
(PID.TID 0000.0001) PTRACERS_useDWNSLP = /* apply DOWN-SLOPE Flow */
(PID.TID 0000.0001)                   F
(PID.TID 0000.0001)     ;
(PID.TID 0000.0001) PTRACERS_useKPP = /* apply KPP scheme */
(PID.TID 0000.0001)                   T
(PID.TID 0000.0001)     ;
(PID.TID 0000.0001) PTRACERS_ref = /* Reference vertical profile */
(PID.TID 0000.0001)    23 @  0.000000000000000E+00              /* K =  1: 23 */
(PID.TID 0000.0001)     ;
(PID.TID 0000.0001) PTRACERS_EvPrRn =/* tracer conc. in Evap. & Rain */
(PID.TID 0000.0001)                 1.234567000000000E+05
(PID.TID 0000.0001)     ;
(PID.TID 0000.0001)  -----------------------------------
(PID.TID 0000.0001)  tracer number :   21
(PID.TID 0000.0001) PTRACERS_names = /* Tracer short name */
(PID.TID 0000.0001)               'c02'
(PID.TID 0000.0001)     ;
(PID.TID 0000.0001) PTRACERS_long_names = /* Tracer long name */
(PID.TID 0000.0001)               ''
(PID.TID 0000.0001)     ;
(PID.TID 0000.0001) PTRACERS_ioLabel = /* tracer IO Label */
(PID.TID 0000.0001)               '21'
(PID.TID 0000.0001)     ;
(PID.TID 0000.0001) PTRACERS_advScheme = /* Advection Scheme */
(PID.TID 0000.0001)                      33
(PID.TID 0000.0001)     ;
(PID.TID 0000.0001) PTRACERS_SOM_Advection = /* tracer uses SOM advection scheme */
(PID.TID 0000.0001)                   F
(PID.TID 0000.0001)     ;
(PID.TID 0000.0001) PTRACERS_ImplVertAdv = /* implicit vert. advection flag */
(PID.TID 0000.0001)                   F
(PID.TID 0000.0001)     ;
(PID.TID 0000.0001) PTRACERS_diffKh = /* Laplacian Diffusivity */
(PID.TID 0000.0001)                 0.000000000000000E+00
(PID.TID 0000.0001)     ;
(PID.TID 0000.0001) PTRACERS_diffK4 = /* Biharmonic Diffusivity */
(PID.TID 0000.0001)                 0.000000000000000E+00
(PID.TID 0000.0001)     ;
(PID.TID 0000.0001) PTRACERS_diffKrNr = /* Vertical Diffusivity */
(PID.TID 0000.0001)    23 @  1.000000000000000E-05              /* K =  1: 23 */
(PID.TID 0000.0001)     ;
(PID.TID 0000.0001) PTRACERS_useGMRedi = /* apply GM-Redi */
(PID.TID 0000.0001)                   T
(PID.TID 0000.0001)     ;
(PID.TID 0000.0001) PTRACERS_useDWNSLP = /* apply DOWN-SLOPE Flow */
(PID.TID 0000.0001)                   F
(PID.TID 0000.0001)     ;
(PID.TID 0000.0001) PTRACERS_useKPP = /* apply KPP scheme */
(PID.TID 0000.0001)                   T
(PID.TID 0000.0001)     ;
(PID.TID 0000.0001) PTRACERS_ref = /* Reference vertical profile */
(PID.TID 0000.0001)    23 @  0.000000000000000E+00              /* K =  1: 23 */
(PID.TID 0000.0001)     ;
(PID.TID 0000.0001) PTRACERS_EvPrRn =/* tracer conc. in Evap. & Rain */
(PID.TID 0000.0001)                 1.234567000000000E+05
(PID.TID 0000.0001)     ;
(PID.TID 0000.0001)  -----------------------------------
(PID.TID 0000.0001)  tracer number :   22
(PID.TID 0000.0001) PTRACERS_names = /* Tracer short name */
(PID.TID 0000.0001)               'c03'
(PID.TID 0000.0001)     ;
(PID.TID 0000.0001) PTRACERS_long_names = /* Tracer long name */
(PID.TID 0000.0001)               ''
(PID.TID 0000.0001)     ;
(PID.TID 0000.0001) PTRACERS_ioLabel = /* tracer IO Label */
(PID.TID 0000.0001)               '22'
(PID.TID 0000.0001)     ;
(PID.TID 0000.0001) PTRACERS_advScheme = /* Advection Scheme */
(PID.TID 0000.0001)                      33
(PID.TID 0000.0001)     ;
(PID.TID 0000.0001) PTRACERS_SOM_Advection = /* tracer uses SOM advection scheme */
(PID.TID 0000.0001)                   F
(PID.TID 0000.0001)     ;
(PID.TID 0000.0001) PTRACERS_ImplVertAdv = /* implicit vert. advection flag */
(PID.TID 0000.0001)                   F
(PID.TID 0000.0001)     ;
(PID.TID 0000.0001) PTRACERS_diffKh = /* Laplacian Diffusivity */
(PID.TID 0000.0001)                 0.000000000000000E+00
(PID.TID 0000.0001)     ;
(PID.TID 0000.0001) PTRACERS_diffK4 = /* Biharmonic Diffusivity */
(PID.TID 0000.0001)                 0.000000000000000E+00
(PID.TID 0000.0001)     ;
(PID.TID 0000.0001) PTRACERS_diffKrNr = /* Vertical Diffusivity */
(PID.TID 0000.0001)    23 @  1.000000000000000E-05              /* K =  1: 23 */
(PID.TID 0000.0001)     ;
(PID.TID 0000.0001) PTRACERS_useGMRedi = /* apply GM-Redi */
(PID.TID 0000.0001)                   T
(PID.TID 0000.0001)     ;
(PID.TID 0000.0001) PTRACERS_useDWNSLP = /* apply DOWN-SLOPE Flow */
(PID.TID 0000.0001)                   F
(PID.TID 0000.0001)     ;
(PID.TID 0000.0001) PTRACERS_useKPP = /* apply KPP scheme */
(PID.TID 0000.0001)                   T
(PID.TID 0000.0001)     ;
(PID.TID 0000.0001) PTRACERS_ref = /* Reference vertical profile */
(PID.TID 0000.0001)    23 @  0.000000000000000E+00              /* K =  1: 23 */
(PID.TID 0000.0001)     ;
(PID.TID 0000.0001) PTRACERS_EvPrRn =/* tracer conc. in Evap. & Rain */
(PID.TID 0000.0001)                 1.234567000000000E+05
(PID.TID 0000.0001)     ;
(PID.TID 0000.0001)  -----------------------------------
(PID.TID 0000.0001)  tracer number :   23
(PID.TID 0000.0001) PTRACERS_names = /* Tracer short name */
(PID.TID 0000.0001)               'c04'
(PID.TID 0000.0001)     ;
(PID.TID 0000.0001) PTRACERS_long_names = /* Tracer long name */
(PID.TID 0000.0001)               ''
(PID.TID 0000.0001)     ;
(PID.TID 0000.0001) PTRACERS_ioLabel = /* tracer IO Label */
(PID.TID 0000.0001)               '23'
(PID.TID 0000.0001)     ;
(PID.TID 0000.0001) PTRACERS_advScheme = /* Advection Scheme */
(PID.TID 0000.0001)                      33
(PID.TID 0000.0001)     ;
(PID.TID 0000.0001) PTRACERS_SOM_Advection = /* tracer uses SOM advection scheme */
(PID.TID 0000.0001)                   F
(PID.TID 0000.0001)     ;
(PID.TID 0000.0001) PTRACERS_ImplVertAdv = /* implicit vert. advection flag */
(PID.TID 0000.0001)                   F
(PID.TID 0000.0001)     ;
(PID.TID 0000.0001) PTRACERS_diffKh = /* Laplacian Diffusivity */
(PID.TID 0000.0001)                 0.000000000000000E+00
(PID.TID 0000.0001)     ;
(PID.TID 0000.0001) PTRACERS_diffK4 = /* Biharmonic Diffusivity */
(PID.TID 0000.0001)                 0.000000000000000E+00
(PID.TID 0000.0001)     ;
(PID.TID 0000.0001) PTRACERS_diffKrNr = /* Vertical Diffusivity */
(PID.TID 0000.0001)    23 @  1.000000000000000E-05              /* K =  1: 23 */
(PID.TID 0000.0001)     ;
(PID.TID 0000.0001) PTRACERS_useGMRedi = /* apply GM-Redi */
(PID.TID 0000.0001)                   T
(PID.TID 0000.0001)     ;
(PID.TID 0000.0001) PTRACERS_useDWNSLP = /* apply DOWN-SLOPE Flow */
(PID.TID 0000.0001)                   F
(PID.TID 0000.0001)     ;
(PID.TID 0000.0001) PTRACERS_useKPP = /* apply KPP scheme */
(PID.TID 0000.0001)                   T
(PID.TID 0000.0001)     ;
(PID.TID 0000.0001) PTRACERS_ref = /* Reference vertical profile */
(PID.TID 0000.0001)    23 @  0.000000000000000E+00              /* K =  1: 23 */
(PID.TID 0000.0001)     ;
(PID.TID 0000.0001) PTRACERS_EvPrRn =/* tracer conc. in Evap. & Rain */
(PID.TID 0000.0001)                 1.234567000000000E+05
(PID.TID 0000.0001)     ;
(PID.TID 0000.0001)  -----------------------------------
(PID.TID 0000.0001)  tracer number :   24
(PID.TID 0000.0001) PTRACERS_names = /* Tracer short name */
(PID.TID 0000.0001)               'c05'
(PID.TID 0000.0001)     ;
(PID.TID 0000.0001) PTRACERS_long_names = /* Tracer long name */
(PID.TID 0000.0001)               ''
(PID.TID 0000.0001)     ;
(PID.TID 0000.0001) PTRACERS_ioLabel = /* tracer IO Label */
(PID.TID 0000.0001)               '24'
(PID.TID 0000.0001)     ;
(PID.TID 0000.0001) PTRACERS_advScheme = /* Advection Scheme */
(PID.TID 0000.0001)                      33
(PID.TID 0000.0001)     ;
(PID.TID 0000.0001) PTRACERS_SOM_Advection = /* tracer uses SOM advection scheme */
(PID.TID 0000.0001)                   F
(PID.TID 0000.0001)     ;
(PID.TID 0000.0001) PTRACERS_ImplVertAdv = /* implicit vert. advection flag */
(PID.TID 0000.0001)                   F
(PID.TID 0000.0001)     ;
(PID.TID 0000.0001) PTRACERS_diffKh = /* Laplacian Diffusivity */
(PID.TID 0000.0001)                 0.000000000000000E+00
(PID.TID 0000.0001)     ;
(PID.TID 0000.0001) PTRACERS_diffK4 = /* Biharmonic Diffusivity */
(PID.TID 0000.0001)                 0.000000000000000E+00
(PID.TID 0000.0001)     ;
(PID.TID 0000.0001) PTRACERS_diffKrNr = /* Vertical Diffusivity */
(PID.TID 0000.0001)    23 @  1.000000000000000E-05              /* K =  1: 23 */
(PID.TID 0000.0001)     ;
(PID.TID 0000.0001) PTRACERS_useGMRedi = /* apply GM-Redi */
(PID.TID 0000.0001)                   T
(PID.TID 0000.0001)     ;
(PID.TID 0000.0001) PTRACERS_useDWNSLP = /* apply DOWN-SLOPE Flow */
(PID.TID 0000.0001)                   F
(PID.TID 0000.0001)     ;
(PID.TID 0000.0001) PTRACERS_useKPP = /* apply KPP scheme */
(PID.TID 0000.0001)                   T
(PID.TID 0000.0001)     ;
(PID.TID 0000.0001) PTRACERS_ref = /* Reference vertical profile */
(PID.TID 0000.0001)    23 @  0.000000000000000E+00              /* K =  1: 23 */
(PID.TID 0000.0001)     ;
(PID.TID 0000.0001) PTRACERS_EvPrRn =/* tracer conc. in Evap. & Rain */
(PID.TID 0000.0001)                 1.234567000000000E+05
(PID.TID 0000.0001)     ;
(PID.TID 0000.0001)  -----------------------------------
(PID.TID 0000.0001)  tracer number :   25
(PID.TID 0000.0001) PTRACERS_names = /* Tracer short name */
(PID.TID 0000.0001)               'c06'
(PID.TID 0000.0001)     ;
(PID.TID 0000.0001) PTRACERS_long_names = /* Tracer long name */
(PID.TID 0000.0001)               ''
(PID.TID 0000.0001)     ;
(PID.TID 0000.0001) PTRACERS_ioLabel = /* tracer IO Label */
(PID.TID 0000.0001)               '25'
(PID.TID 0000.0001)     ;
(PID.TID 0000.0001) PTRACERS_advScheme = /* Advection Scheme */
(PID.TID 0000.0001)                      33
(PID.TID 0000.0001)     ;
(PID.TID 0000.0001) PTRACERS_SOM_Advection = /* tracer uses SOM advection scheme */
(PID.TID 0000.0001)                   F
(PID.TID 0000.0001)     ;
(PID.TID 0000.0001) PTRACERS_ImplVertAdv = /* implicit vert. advection flag */
(PID.TID 0000.0001)                   F
(PID.TID 0000.0001)     ;
(PID.TID 0000.0001) PTRACERS_diffKh = /* Laplacian Diffusivity */
(PID.TID 0000.0001)                 0.000000000000000E+00
(PID.TID 0000.0001)     ;
(PID.TID 0000.0001) PTRACERS_diffK4 = /* Biharmonic Diffusivity */
(PID.TID 0000.0001)                 0.000000000000000E+00
(PID.TID 0000.0001)     ;
(PID.TID 0000.0001) PTRACERS_diffKrNr = /* Vertical Diffusivity */
(PID.TID 0000.0001)    23 @  1.000000000000000E-05              /* K =  1: 23 */
(PID.TID 0000.0001)     ;
(PID.TID 0000.0001) PTRACERS_useGMRedi = /* apply GM-Redi */
(PID.TID 0000.0001)                   T
(PID.TID 0000.0001)     ;
(PID.TID 0000.0001) PTRACERS_useDWNSLP = /* apply DOWN-SLOPE Flow */
(PID.TID 0000.0001)                   F
(PID.TID 0000.0001)     ;
(PID.TID 0000.0001) PTRACERS_useKPP = /* apply KPP scheme */
(PID.TID 0000.0001)                   T
(PID.TID 0000.0001)     ;
(PID.TID 0000.0001) PTRACERS_ref = /* Reference vertical profile */
(PID.TID 0000.0001)    23 @  0.000000000000000E+00              /* K =  1: 23 */
(PID.TID 0000.0001)     ;
(PID.TID 0000.0001) PTRACERS_EvPrRn =/* tracer conc. in Evap. & Rain */
(PID.TID 0000.0001)                 1.234567000000000E+05
(PID.TID 0000.0001)     ;
(PID.TID 0000.0001)  -----------------------------------
(PID.TID 0000.0001)  tracer number :   26
(PID.TID 0000.0001) PTRACERS_names = /* Tracer short name */
(PID.TID 0000.0001)               'c07'
(PID.TID 0000.0001)     ;
(PID.TID 0000.0001) PTRACERS_long_names = /* Tracer long name */
(PID.TID 0000.0001)               ''
(PID.TID 0000.0001)     ;
(PID.TID 0000.0001) PTRACERS_ioLabel = /* tracer IO Label */
(PID.TID 0000.0001)               '26'
(PID.TID 0000.0001)     ;
(PID.TID 0000.0001) PTRACERS_advScheme = /* Advection Scheme */
(PID.TID 0000.0001)                      33
(PID.TID 0000.0001)     ;
(PID.TID 0000.0001) PTRACERS_SOM_Advection = /* tracer uses SOM advection scheme */
(PID.TID 0000.0001)                   F
(PID.TID 0000.0001)     ;
(PID.TID 0000.0001) PTRACERS_ImplVertAdv = /* implicit vert. advection flag */
(PID.TID 0000.0001)                   F
(PID.TID 0000.0001)     ;
(PID.TID 0000.0001) PTRACERS_diffKh = /* Laplacian Diffusivity */
(PID.TID 0000.0001)                 0.000000000000000E+00
(PID.TID 0000.0001)     ;
(PID.TID 0000.0001) PTRACERS_diffK4 = /* Biharmonic Diffusivity */
(PID.TID 0000.0001)                 0.000000000000000E+00
(PID.TID 0000.0001)     ;
(PID.TID 0000.0001) PTRACERS_diffKrNr = /* Vertical Diffusivity */
(PID.TID 0000.0001)    23 @  1.000000000000000E-05              /* K =  1: 23 */
(PID.TID 0000.0001)     ;
(PID.TID 0000.0001) PTRACERS_useGMRedi = /* apply GM-Redi */
(PID.TID 0000.0001)                   T
(PID.TID 0000.0001)     ;
(PID.TID 0000.0001) PTRACERS_useDWNSLP = /* apply DOWN-SLOPE Flow */
(PID.TID 0000.0001)                   F
(PID.TID 0000.0001)     ;
(PID.TID 0000.0001) PTRACERS_useKPP = /* apply KPP scheme */
(PID.TID 0000.0001)                   T
(PID.TID 0000.0001)     ;
(PID.TID 0000.0001) PTRACERS_ref = /* Reference vertical profile */
(PID.TID 0000.0001)    23 @  0.000000000000000E+00              /* K =  1: 23 */
(PID.TID 0000.0001)     ;
(PID.TID 0000.0001) PTRACERS_EvPrRn =/* tracer conc. in Evap. & Rain */
(PID.TID 0000.0001)                 1.234567000000000E+05
(PID.TID 0000.0001)     ;
(PID.TID 0000.0001)  -----------------------------------
(PID.TID 0000.0001)  tracer number :   27
(PID.TID 0000.0001) PTRACERS_names = /* Tracer short name */
(PID.TID 0000.0001)               'c08'
(PID.TID 0000.0001)     ;
(PID.TID 0000.0001) PTRACERS_long_names = /* Tracer long name */
(PID.TID 0000.0001)               ''
(PID.TID 0000.0001)     ;
(PID.TID 0000.0001) PTRACERS_ioLabel = /* tracer IO Label */
(PID.TID 0000.0001)               '27'
(PID.TID 0000.0001)     ;
(PID.TID 0000.0001) PTRACERS_advScheme = /* Advection Scheme */
(PID.TID 0000.0001)                      33
(PID.TID 0000.0001)     ;
(PID.TID 0000.0001) PTRACERS_SOM_Advection = /* tracer uses SOM advection scheme */
(PID.TID 0000.0001)                   F
(PID.TID 0000.0001)     ;
(PID.TID 0000.0001) PTRACERS_ImplVertAdv = /* implicit vert. advection flag */
(PID.TID 0000.0001)                   F
(PID.TID 0000.0001)     ;
(PID.TID 0000.0001) PTRACERS_diffKh = /* Laplacian Diffusivity */
(PID.TID 0000.0001)                 0.000000000000000E+00
(PID.TID 0000.0001)     ;
(PID.TID 0000.0001) PTRACERS_diffK4 = /* Biharmonic Diffusivity */
(PID.TID 0000.0001)                 0.000000000000000E+00
(PID.TID 0000.0001)     ;
(PID.TID 0000.0001) PTRACERS_diffKrNr = /* Vertical Diffusivity */
(PID.TID 0000.0001)    23 @  1.000000000000000E-05              /* K =  1: 23 */
(PID.TID 0000.0001)     ;
(PID.TID 0000.0001) PTRACERS_useGMRedi = /* apply GM-Redi */
(PID.TID 0000.0001)                   T
(PID.TID 0000.0001)     ;
(PID.TID 0000.0001) PTRACERS_useDWNSLP = /* apply DOWN-SLOPE Flow */
(PID.TID 0000.0001)                   F
(PID.TID 0000.0001)     ;
(PID.TID 0000.0001) PTRACERS_useKPP = /* apply KPP scheme */
(PID.TID 0000.0001)                   T
(PID.TID 0000.0001)     ;
(PID.TID 0000.0001) PTRACERS_ref = /* Reference vertical profile */
(PID.TID 0000.0001)    23 @  0.000000000000000E+00              /* K =  1: 23 */
(PID.TID 0000.0001)     ;
(PID.TID 0000.0001) PTRACERS_EvPrRn =/* tracer conc. in Evap. & Rain */
(PID.TID 0000.0001)                 1.234567000000000E+05
(PID.TID 0000.0001)     ;
(PID.TID 0000.0001)  -----------------------------------
(PID.TID 0000.0001)  tracer number :   28
(PID.TID 0000.0001) PTRACERS_names = /* Tracer short name */
(PID.TID 0000.0001)               'c09'
(PID.TID 0000.0001)     ;
(PID.TID 0000.0001) PTRACERS_long_names = /* Tracer long name */
(PID.TID 0000.0001)               ''
(PID.TID 0000.0001)     ;
(PID.TID 0000.0001) PTRACERS_ioLabel = /* tracer IO Label */
(PID.TID 0000.0001)               '28'
(PID.TID 0000.0001)     ;
(PID.TID 0000.0001) PTRACERS_advScheme = /* Advection Scheme */
(PID.TID 0000.0001)                      33
(PID.TID 0000.0001)     ;
(PID.TID 0000.0001) PTRACERS_SOM_Advection = /* tracer uses SOM advection scheme */
(PID.TID 0000.0001)                   F
(PID.TID 0000.0001)     ;
(PID.TID 0000.0001) PTRACERS_ImplVertAdv = /* implicit vert. advection flag */
(PID.TID 0000.0001)                   F
(PID.TID 0000.0001)     ;
(PID.TID 0000.0001) PTRACERS_diffKh = /* Laplacian Diffusivity */
(PID.TID 0000.0001)                 0.000000000000000E+00
(PID.TID 0000.0001)     ;
(PID.TID 0000.0001) PTRACERS_diffK4 = /* Biharmonic Diffusivity */
(PID.TID 0000.0001)                 0.000000000000000E+00
(PID.TID 0000.0001)     ;
(PID.TID 0000.0001) PTRACERS_diffKrNr = /* Vertical Diffusivity */
(PID.TID 0000.0001)    23 @  1.000000000000000E-05              /* K =  1: 23 */
(PID.TID 0000.0001)     ;
(PID.TID 0000.0001) PTRACERS_useGMRedi = /* apply GM-Redi */
(PID.TID 0000.0001)                   T
(PID.TID 0000.0001)     ;
(PID.TID 0000.0001) PTRACERS_useDWNSLP = /* apply DOWN-SLOPE Flow */
(PID.TID 0000.0001)                   F
(PID.TID 0000.0001)     ;
(PID.TID 0000.0001) PTRACERS_useKPP = /* apply KPP scheme */
(PID.TID 0000.0001)                   T
(PID.TID 0000.0001)     ;
(PID.TID 0000.0001) PTRACERS_ref = /* Reference vertical profile */
(PID.TID 0000.0001)    23 @  0.000000000000000E+00              /* K =  1: 23 */
(PID.TID 0000.0001)     ;
(PID.TID 0000.0001) PTRACERS_EvPrRn =/* tracer conc. in Evap. & Rain */
(PID.TID 0000.0001)                 1.234567000000000E+05
(PID.TID 0000.0001)     ;
(PID.TID 0000.0001)  -----------------------------------
(PID.TID 0000.0001)  tracer number :   29
(PID.TID 0000.0001) PTRACERS_names = /* Tracer short name */
(PID.TID 0000.0001)               'c10'
(PID.TID 0000.0001)     ;
(PID.TID 0000.0001) PTRACERS_long_names = /* Tracer long name */
(PID.TID 0000.0001)               ''
(PID.TID 0000.0001)     ;
(PID.TID 0000.0001) PTRACERS_ioLabel = /* tracer IO Label */
(PID.TID 0000.0001)               '29'
(PID.TID 0000.0001)     ;
(PID.TID 0000.0001) PTRACERS_advScheme = /* Advection Scheme */
(PID.TID 0000.0001)                      33
(PID.TID 0000.0001)     ;
(PID.TID 0000.0001) PTRACERS_SOM_Advection = /* tracer uses SOM advection scheme */
(PID.TID 0000.0001)                   F
(PID.TID 0000.0001)     ;
(PID.TID 0000.0001) PTRACERS_ImplVertAdv = /* implicit vert. advection flag */
(PID.TID 0000.0001)                   F
(PID.TID 0000.0001)     ;
(PID.TID 0000.0001) PTRACERS_diffKh = /* Laplacian Diffusivity */
(PID.TID 0000.0001)                 0.000000000000000E+00
(PID.TID 0000.0001)     ;
(PID.TID 0000.0001) PTRACERS_diffK4 = /* Biharmonic Diffusivity */
(PID.TID 0000.0001)                 0.000000000000000E+00
(PID.TID 0000.0001)     ;
(PID.TID 0000.0001) PTRACERS_diffKrNr = /* Vertical Diffusivity */
(PID.TID 0000.0001)    23 @  1.000000000000000E-05              /* K =  1: 23 */
(PID.TID 0000.0001)     ;
(PID.TID 0000.0001) PTRACERS_useGMRedi = /* apply GM-Redi */
(PID.TID 0000.0001)                   T
(PID.TID 0000.0001)     ;
(PID.TID 0000.0001) PTRACERS_useDWNSLP = /* apply DOWN-SLOPE Flow */
(PID.TID 0000.0001)                   F
(PID.TID 0000.0001)     ;
(PID.TID 0000.0001) PTRACERS_useKPP = /* apply KPP scheme */
(PID.TID 0000.0001)                   T
(PID.TID 0000.0001)     ;
(PID.TID 0000.0001) PTRACERS_ref = /* Reference vertical profile */
(PID.TID 0000.0001)    23 @  0.000000000000000E+00              /* K =  1: 23 */
(PID.TID 0000.0001)     ;
(PID.TID 0000.0001) PTRACERS_EvPrRn =/* tracer conc. in Evap. & Rain */
(PID.TID 0000.0001)                 1.234567000000000E+05
(PID.TID 0000.0001)     ;
(PID.TID 0000.0001)  -----------------------------------
(PID.TID 0000.0001)  tracer number :   30
(PID.TID 0000.0001) PTRACERS_names = /* Tracer short name */
(PID.TID 0000.0001)               'c11'
(PID.TID 0000.0001)     ;
(PID.TID 0000.0001) PTRACERS_long_names = /* Tracer long name */
(PID.TID 0000.0001)               ''
(PID.TID 0000.0001)     ;
(PID.TID 0000.0001) PTRACERS_ioLabel = /* tracer IO Label */
(PID.TID 0000.0001)               '30'
(PID.TID 0000.0001)     ;
(PID.TID 0000.0001) PTRACERS_advScheme = /* Advection Scheme */
(PID.TID 0000.0001)                      33
(PID.TID 0000.0001)     ;
(PID.TID 0000.0001) PTRACERS_SOM_Advection = /* tracer uses SOM advection scheme */
(PID.TID 0000.0001)                   F
(PID.TID 0000.0001)     ;
(PID.TID 0000.0001) PTRACERS_ImplVertAdv = /* implicit vert. advection flag */
(PID.TID 0000.0001)                   F
(PID.TID 0000.0001)     ;
(PID.TID 0000.0001) PTRACERS_diffKh = /* Laplacian Diffusivity */
(PID.TID 0000.0001)                 0.000000000000000E+00
(PID.TID 0000.0001)     ;
(PID.TID 0000.0001) PTRACERS_diffK4 = /* Biharmonic Diffusivity */
(PID.TID 0000.0001)                 0.000000000000000E+00
(PID.TID 0000.0001)     ;
(PID.TID 0000.0001) PTRACERS_diffKrNr = /* Vertical Diffusivity */
(PID.TID 0000.0001)    23 @  1.000000000000000E-05              /* K =  1: 23 */
(PID.TID 0000.0001)     ;
(PID.TID 0000.0001) PTRACERS_useGMRedi = /* apply GM-Redi */
(PID.TID 0000.0001)                   T
(PID.TID 0000.0001)     ;
(PID.TID 0000.0001) PTRACERS_useDWNSLP = /* apply DOWN-SLOPE Flow */
(PID.TID 0000.0001)                   F
(PID.TID 0000.0001)     ;
(PID.TID 0000.0001) PTRACERS_useKPP = /* apply KPP scheme */
(PID.TID 0000.0001)                   T
(PID.TID 0000.0001)     ;
(PID.TID 0000.0001) PTRACERS_ref = /* Reference vertical profile */
(PID.TID 0000.0001)    23 @  0.000000000000000E+00              /* K =  1: 23 */
(PID.TID 0000.0001)     ;
(PID.TID 0000.0001) PTRACERS_EvPrRn =/* tracer conc. in Evap. & Rain */
(PID.TID 0000.0001)                 1.234567000000000E+05
(PID.TID 0000.0001)     ;
(PID.TID 0000.0001)  -----------------------------------
(PID.TID 0000.0001)  tracer number :   31
(PID.TID 0000.0001) PTRACERS_names = /* Tracer short name */
(PID.TID 0000.0001)               'c12'
(PID.TID 0000.0001)     ;
(PID.TID 0000.0001) PTRACERS_long_names = /* Tracer long name */
(PID.TID 0000.0001)               ''
(PID.TID 0000.0001)     ;
(PID.TID 0000.0001) PTRACERS_ioLabel = /* tracer IO Label */
(PID.TID 0000.0001)               '31'
(PID.TID 0000.0001)     ;
(PID.TID 0000.0001) PTRACERS_advScheme = /* Advection Scheme */
(PID.TID 0000.0001)                      33
(PID.TID 0000.0001)     ;
(PID.TID 0000.0001) PTRACERS_SOM_Advection = /* tracer uses SOM advection scheme */
(PID.TID 0000.0001)                   F
(PID.TID 0000.0001)     ;
(PID.TID 0000.0001) PTRACERS_ImplVertAdv = /* implicit vert. advection flag */
(PID.TID 0000.0001)                   F
(PID.TID 0000.0001)     ;
(PID.TID 0000.0001) PTRACERS_diffKh = /* Laplacian Diffusivity */
(PID.TID 0000.0001)                 0.000000000000000E+00
(PID.TID 0000.0001)     ;
(PID.TID 0000.0001) PTRACERS_diffK4 = /* Biharmonic Diffusivity */
(PID.TID 0000.0001)                 0.000000000000000E+00
(PID.TID 0000.0001)     ;
(PID.TID 0000.0001) PTRACERS_diffKrNr = /* Vertical Diffusivity */
(PID.TID 0000.0001)    23 @  1.000000000000000E-05              /* K =  1: 23 */
(PID.TID 0000.0001)     ;
(PID.TID 0000.0001) PTRACERS_useGMRedi = /* apply GM-Redi */
(PID.TID 0000.0001)                   T
(PID.TID 0000.0001)     ;
(PID.TID 0000.0001) PTRACERS_useDWNSLP = /* apply DOWN-SLOPE Flow */
(PID.TID 0000.0001)                   F
(PID.TID 0000.0001)     ;
(PID.TID 0000.0001) PTRACERS_useKPP = /* apply KPP scheme */
(PID.TID 0000.0001)                   T
(PID.TID 0000.0001)     ;
(PID.TID 0000.0001) PTRACERS_ref = /* Reference vertical profile */
(PID.TID 0000.0001)    23 @  0.000000000000000E+00              /* K =  1: 23 */
(PID.TID 0000.0001)     ;
(PID.TID 0000.0001) PTRACERS_EvPrRn =/* tracer conc. in Evap. & Rain */
(PID.TID 0000.0001)                 1.234567000000000E+05
(PID.TID 0000.0001)     ;
(PID.TID 0000.0001)  -----------------------------------
(PID.TID 0000.0001)  tracer number :   32
(PID.TID 0000.0001) PTRACERS_names = /* Tracer short name */
(PID.TID 0000.0001)               'c13'
(PID.TID 0000.0001)     ;
(PID.TID 0000.0001) PTRACERS_long_names = /* Tracer long name */
(PID.TID 0000.0001)               ''
(PID.TID 0000.0001)     ;
(PID.TID 0000.0001) PTRACERS_ioLabel = /* tracer IO Label */
(PID.TID 0000.0001)               '32'
(PID.TID 0000.0001)     ;
(PID.TID 0000.0001) PTRACERS_advScheme = /* Advection Scheme */
(PID.TID 0000.0001)                      33
(PID.TID 0000.0001)     ;
(PID.TID 0000.0001) PTRACERS_SOM_Advection = /* tracer uses SOM advection scheme */
(PID.TID 0000.0001)                   F
(PID.TID 0000.0001)     ;
(PID.TID 0000.0001) PTRACERS_ImplVertAdv = /* implicit vert. advection flag */
(PID.TID 0000.0001)                   F
(PID.TID 0000.0001)     ;
(PID.TID 0000.0001) PTRACERS_diffKh = /* Laplacian Diffusivity */
(PID.TID 0000.0001)                 0.000000000000000E+00
(PID.TID 0000.0001)     ;
(PID.TID 0000.0001) PTRACERS_diffK4 = /* Biharmonic Diffusivity */
(PID.TID 0000.0001)                 0.000000000000000E+00
(PID.TID 0000.0001)     ;
(PID.TID 0000.0001) PTRACERS_diffKrNr = /* Vertical Diffusivity */
(PID.TID 0000.0001)    23 @  1.000000000000000E-05              /* K =  1: 23 */
(PID.TID 0000.0001)     ;
(PID.TID 0000.0001) PTRACERS_useGMRedi = /* apply GM-Redi */
(PID.TID 0000.0001)                   T
(PID.TID 0000.0001)     ;
(PID.TID 0000.0001) PTRACERS_useDWNSLP = /* apply DOWN-SLOPE Flow */
(PID.TID 0000.0001)                   F
(PID.TID 0000.0001)     ;
(PID.TID 0000.0001) PTRACERS_useKPP = /* apply KPP scheme */
(PID.TID 0000.0001)                   T
(PID.TID 0000.0001)     ;
(PID.TID 0000.0001) PTRACERS_ref = /* Reference vertical profile */
(PID.TID 0000.0001)    23 @  0.000000000000000E+00              /* K =  1: 23 */
(PID.TID 0000.0001)     ;
(PID.TID 0000.0001) PTRACERS_EvPrRn =/* tracer conc. in Evap. & Rain */
(PID.TID 0000.0001)                 1.234567000000000E+05
(PID.TID 0000.0001)     ;
(PID.TID 0000.0001)  -----------------------------------
(PID.TID 0000.0001)  tracer number :   33
(PID.TID 0000.0001) PTRACERS_names = /* Tracer short name */
(PID.TID 0000.0001)               'c14'
(PID.TID 0000.0001)     ;
(PID.TID 0000.0001) PTRACERS_long_names = /* Tracer long name */
(PID.TID 0000.0001)               ''
(PID.TID 0000.0001)     ;
(PID.TID 0000.0001) PTRACERS_ioLabel = /* tracer IO Label */
(PID.TID 0000.0001)               '33'
(PID.TID 0000.0001)     ;
(PID.TID 0000.0001) PTRACERS_advScheme = /* Advection Scheme */
(PID.TID 0000.0001)                      33
(PID.TID 0000.0001)     ;
(PID.TID 0000.0001) PTRACERS_SOM_Advection = /* tracer uses SOM advection scheme */
(PID.TID 0000.0001)                   F
(PID.TID 0000.0001)     ;
(PID.TID 0000.0001) PTRACERS_ImplVertAdv = /* implicit vert. advection flag */
(PID.TID 0000.0001)                   F
(PID.TID 0000.0001)     ;
(PID.TID 0000.0001) PTRACERS_diffKh = /* Laplacian Diffusivity */
(PID.TID 0000.0001)                 0.000000000000000E+00
(PID.TID 0000.0001)     ;
(PID.TID 0000.0001) PTRACERS_diffK4 = /* Biharmonic Diffusivity */
(PID.TID 0000.0001)                 0.000000000000000E+00
(PID.TID 0000.0001)     ;
(PID.TID 0000.0001) PTRACERS_diffKrNr = /* Vertical Diffusivity */
(PID.TID 0000.0001)    23 @  1.000000000000000E-05              /* K =  1: 23 */
(PID.TID 0000.0001)     ;
(PID.TID 0000.0001) PTRACERS_useGMRedi = /* apply GM-Redi */
(PID.TID 0000.0001)                   T
(PID.TID 0000.0001)     ;
(PID.TID 0000.0001) PTRACERS_useDWNSLP = /* apply DOWN-SLOPE Flow */
(PID.TID 0000.0001)                   F
(PID.TID 0000.0001)     ;
(PID.TID 0000.0001) PTRACERS_useKPP = /* apply KPP scheme */
(PID.TID 0000.0001)                   T
(PID.TID 0000.0001)     ;
(PID.TID 0000.0001) PTRACERS_ref = /* Reference vertical profile */
(PID.TID 0000.0001)    23 @  0.000000000000000E+00              /* K =  1: 23 */
(PID.TID 0000.0001)     ;
(PID.TID 0000.0001) PTRACERS_EvPrRn =/* tracer conc. in Evap. & Rain */
(PID.TID 0000.0001)                 1.234567000000000E+05
(PID.TID 0000.0001)     ;
(PID.TID 0000.0001)  -----------------------------------
(PID.TID 0000.0001)  tracer number :   34
(PID.TID 0000.0001) PTRACERS_names = /* Tracer short name */
(PID.TID 0000.0001)               'c15'
(PID.TID 0000.0001)     ;
(PID.TID 0000.0001) PTRACERS_long_names = /* Tracer long name */
(PID.TID 0000.0001)               ''
(PID.TID 0000.0001)     ;
(PID.TID 0000.0001) PTRACERS_ioLabel = /* tracer IO Label */
(PID.TID 0000.0001)               '34'
(PID.TID 0000.0001)     ;
(PID.TID 0000.0001) PTRACERS_advScheme = /* Advection Scheme */
(PID.TID 0000.0001)                      33
(PID.TID 0000.0001)     ;
(PID.TID 0000.0001) PTRACERS_SOM_Advection = /* tracer uses SOM advection scheme */
(PID.TID 0000.0001)                   F
(PID.TID 0000.0001)     ;
(PID.TID 0000.0001) PTRACERS_ImplVertAdv = /* implicit vert. advection flag */
(PID.TID 0000.0001)                   F
(PID.TID 0000.0001)     ;
(PID.TID 0000.0001) PTRACERS_diffKh = /* Laplacian Diffusivity */
(PID.TID 0000.0001)                 0.000000000000000E+00
(PID.TID 0000.0001)     ;
(PID.TID 0000.0001) PTRACERS_diffK4 = /* Biharmonic Diffusivity */
(PID.TID 0000.0001)                 0.000000000000000E+00
(PID.TID 0000.0001)     ;
(PID.TID 0000.0001) PTRACERS_diffKrNr = /* Vertical Diffusivity */
(PID.TID 0000.0001)    23 @  1.000000000000000E-05              /* K =  1: 23 */
(PID.TID 0000.0001)     ;
(PID.TID 0000.0001) PTRACERS_useGMRedi = /* apply GM-Redi */
(PID.TID 0000.0001)                   T
(PID.TID 0000.0001)     ;
(PID.TID 0000.0001) PTRACERS_useDWNSLP = /* apply DOWN-SLOPE Flow */
(PID.TID 0000.0001)                   F
(PID.TID 0000.0001)     ;
(PID.TID 0000.0001) PTRACERS_useKPP = /* apply KPP scheme */
(PID.TID 0000.0001)                   T
(PID.TID 0000.0001)     ;
(PID.TID 0000.0001) PTRACERS_ref = /* Reference vertical profile */
(PID.TID 0000.0001)    23 @  0.000000000000000E+00              /* K =  1: 23 */
(PID.TID 0000.0001)     ;
(PID.TID 0000.0001) PTRACERS_EvPrRn =/* tracer conc. in Evap. & Rain */
(PID.TID 0000.0001)                 1.234567000000000E+05
(PID.TID 0000.0001)     ;
(PID.TID 0000.0001)  -----------------------------------
(PID.TID 0000.0001)  tracer number :   35
(PID.TID 0000.0001) PTRACERS_names = /* Tracer short name */
(PID.TID 0000.0001)               'c16'
(PID.TID 0000.0001)     ;
(PID.TID 0000.0001) PTRACERS_long_names = /* Tracer long name */
(PID.TID 0000.0001)               ''
(PID.TID 0000.0001)     ;
(PID.TID 0000.0001) PTRACERS_ioLabel = /* tracer IO Label */
(PID.TID 0000.0001)               '35'
(PID.TID 0000.0001)     ;
(PID.TID 0000.0001) PTRACERS_advScheme = /* Advection Scheme */
(PID.TID 0000.0001)                      33
(PID.TID 0000.0001)     ;
(PID.TID 0000.0001) PTRACERS_SOM_Advection = /* tracer uses SOM advection scheme */
(PID.TID 0000.0001)                   F
(PID.TID 0000.0001)     ;
(PID.TID 0000.0001) PTRACERS_ImplVertAdv = /* implicit vert. advection flag */
(PID.TID 0000.0001)                   F
(PID.TID 0000.0001)     ;
(PID.TID 0000.0001) PTRACERS_diffKh = /* Laplacian Diffusivity */
(PID.TID 0000.0001)                 0.000000000000000E+00
(PID.TID 0000.0001)     ;
(PID.TID 0000.0001) PTRACERS_diffK4 = /* Biharmonic Diffusivity */
(PID.TID 0000.0001)                 0.000000000000000E+00
(PID.TID 0000.0001)     ;
(PID.TID 0000.0001) PTRACERS_diffKrNr = /* Vertical Diffusivity */
(PID.TID 0000.0001)    23 @  1.000000000000000E-05              /* K =  1: 23 */
(PID.TID 0000.0001)     ;
(PID.TID 0000.0001) PTRACERS_useGMRedi = /* apply GM-Redi */
(PID.TID 0000.0001)                   T
(PID.TID 0000.0001)     ;
(PID.TID 0000.0001) PTRACERS_useDWNSLP = /* apply DOWN-SLOPE Flow */
(PID.TID 0000.0001)                   F
(PID.TID 0000.0001)     ;
(PID.TID 0000.0001) PTRACERS_useKPP = /* apply KPP scheme */
(PID.TID 0000.0001)                   T
(PID.TID 0000.0001)     ;
(PID.TID 0000.0001) PTRACERS_ref = /* Reference vertical profile */
(PID.TID 0000.0001)    23 @  0.000000000000000E+00              /* K =  1: 23 */
(PID.TID 0000.0001)     ;
(PID.TID 0000.0001) PTRACERS_EvPrRn =/* tracer conc. in Evap. & Rain */
(PID.TID 0000.0001)                 1.234567000000000E+05
(PID.TID 0000.0001)     ;
(PID.TID 0000.0001)  -----------------------------------
(PID.TID 0000.0001)  tracer number :   36
(PID.TID 0000.0001) PTRACERS_names = /* Tracer short name */
(PID.TID 0000.0001)               'c17'
(PID.TID 0000.0001)     ;
(PID.TID 0000.0001) PTRACERS_long_names = /* Tracer long name */
(PID.TID 0000.0001)               ''
(PID.TID 0000.0001)     ;
(PID.TID 0000.0001) PTRACERS_ioLabel = /* tracer IO Label */
(PID.TID 0000.0001)               '36'
(PID.TID 0000.0001)     ;
(PID.TID 0000.0001) PTRACERS_advScheme = /* Advection Scheme */
(PID.TID 0000.0001)                      33
(PID.TID 0000.0001)     ;
(PID.TID 0000.0001) PTRACERS_SOM_Advection = /* tracer uses SOM advection scheme */
(PID.TID 0000.0001)                   F
(PID.TID 0000.0001)     ;
(PID.TID 0000.0001) PTRACERS_ImplVertAdv = /* implicit vert. advection flag */
(PID.TID 0000.0001)                   F
(PID.TID 0000.0001)     ;
(PID.TID 0000.0001) PTRACERS_diffKh = /* Laplacian Diffusivity */
(PID.TID 0000.0001)                 0.000000000000000E+00
(PID.TID 0000.0001)     ;
(PID.TID 0000.0001) PTRACERS_diffK4 = /* Biharmonic Diffusivity */
(PID.TID 0000.0001)                 0.000000000000000E+00
(PID.TID 0000.0001)     ;
(PID.TID 0000.0001) PTRACERS_diffKrNr = /* Vertical Diffusivity */
(PID.TID 0000.0001)    23 @  1.000000000000000E-05              /* K =  1: 23 */
(PID.TID 0000.0001)     ;
(PID.TID 0000.0001) PTRACERS_useGMRedi = /* apply GM-Redi */
(PID.TID 0000.0001)                   T
(PID.TID 0000.0001)     ;
(PID.TID 0000.0001) PTRACERS_useDWNSLP = /* apply DOWN-SLOPE Flow */
(PID.TID 0000.0001)                   F
(PID.TID 0000.0001)     ;
(PID.TID 0000.0001) PTRACERS_useKPP = /* apply KPP scheme */
(PID.TID 0000.0001)                   T
(PID.TID 0000.0001)     ;
(PID.TID 0000.0001) PTRACERS_ref = /* Reference vertical profile */
(PID.TID 0000.0001)    23 @  0.000000000000000E+00              /* K =  1: 23 */
(PID.TID 0000.0001)     ;
(PID.TID 0000.0001) PTRACERS_EvPrRn =/* tracer conc. in Evap. & Rain */
(PID.TID 0000.0001)                 1.234567000000000E+05
(PID.TID 0000.0001)     ;
(PID.TID 0000.0001)  -----------------------------------
(PID.TID 0000.0001)  tracer number :   37
(PID.TID 0000.0001) PTRACERS_names = /* Tracer short name */
(PID.TID 0000.0001)               'c18'
(PID.TID 0000.0001)     ;
(PID.TID 0000.0001) PTRACERS_long_names = /* Tracer long name */
(PID.TID 0000.0001)               ''
(PID.TID 0000.0001)     ;
(PID.TID 0000.0001) PTRACERS_ioLabel = /* tracer IO Label */
(PID.TID 0000.0001)               '37'
(PID.TID 0000.0001)     ;
(PID.TID 0000.0001) PTRACERS_advScheme = /* Advection Scheme */
(PID.TID 0000.0001)                      33
(PID.TID 0000.0001)     ;
(PID.TID 0000.0001) PTRACERS_SOM_Advection = /* tracer uses SOM advection scheme */
(PID.TID 0000.0001)                   F
(PID.TID 0000.0001)     ;
(PID.TID 0000.0001) PTRACERS_ImplVertAdv = /* implicit vert. advection flag */
(PID.TID 0000.0001)                   F
(PID.TID 0000.0001)     ;
(PID.TID 0000.0001) PTRACERS_diffKh = /* Laplacian Diffusivity */
(PID.TID 0000.0001)                 0.000000000000000E+00
(PID.TID 0000.0001)     ;
(PID.TID 0000.0001) PTRACERS_diffK4 = /* Biharmonic Diffusivity */
(PID.TID 0000.0001)                 0.000000000000000E+00
(PID.TID 0000.0001)     ;
(PID.TID 0000.0001) PTRACERS_diffKrNr = /* Vertical Diffusivity */
(PID.TID 0000.0001)    23 @  1.000000000000000E-05              /* K =  1: 23 */
(PID.TID 0000.0001)     ;
(PID.TID 0000.0001) PTRACERS_useGMRedi = /* apply GM-Redi */
(PID.TID 0000.0001)                   T
(PID.TID 0000.0001)     ;
(PID.TID 0000.0001) PTRACERS_useDWNSLP = /* apply DOWN-SLOPE Flow */
(PID.TID 0000.0001)                   F
(PID.TID 0000.0001)     ;
(PID.TID 0000.0001) PTRACERS_useKPP = /* apply KPP scheme */
(PID.TID 0000.0001)                   T
(PID.TID 0000.0001)     ;
(PID.TID 0000.0001) PTRACERS_ref = /* Reference vertical profile */
(PID.TID 0000.0001)    23 @  0.000000000000000E+00              /* K =  1: 23 */
(PID.TID 0000.0001)     ;
(PID.TID 0000.0001) PTRACERS_EvPrRn =/* tracer conc. in Evap. & Rain */
(PID.TID 0000.0001)                 1.234567000000000E+05
(PID.TID 0000.0001)     ;
(PID.TID 0000.0001)  -----------------------------------
(PID.TID 0000.0001)  tracer number :   38
(PID.TID 0000.0001) PTRACERS_names = /* Tracer short name */
(PID.TID 0000.0001)               'c19'
(PID.TID 0000.0001)     ;
(PID.TID 0000.0001) PTRACERS_long_names = /* Tracer long name */
(PID.TID 0000.0001)               ''
(PID.TID 0000.0001)     ;
(PID.TID 0000.0001) PTRACERS_ioLabel = /* tracer IO Label */
(PID.TID 0000.0001)               '38'
(PID.TID 0000.0001)     ;
(PID.TID 0000.0001) PTRACERS_advScheme = /* Advection Scheme */
(PID.TID 0000.0001)                      33
(PID.TID 0000.0001)     ;
(PID.TID 0000.0001) PTRACERS_SOM_Advection = /* tracer uses SOM advection scheme */
(PID.TID 0000.0001)                   F
(PID.TID 0000.0001)     ;
(PID.TID 0000.0001) PTRACERS_ImplVertAdv = /* implicit vert. advection flag */
(PID.TID 0000.0001)                   F
(PID.TID 0000.0001)     ;
(PID.TID 0000.0001) PTRACERS_diffKh = /* Laplacian Diffusivity */
(PID.TID 0000.0001)                 0.000000000000000E+00
(PID.TID 0000.0001)     ;
(PID.TID 0000.0001) PTRACERS_diffK4 = /* Biharmonic Diffusivity */
(PID.TID 0000.0001)                 0.000000000000000E+00
(PID.TID 0000.0001)     ;
(PID.TID 0000.0001) PTRACERS_diffKrNr = /* Vertical Diffusivity */
(PID.TID 0000.0001)    23 @  1.000000000000000E-05              /* K =  1: 23 */
(PID.TID 0000.0001)     ;
(PID.TID 0000.0001) PTRACERS_useGMRedi = /* apply GM-Redi */
(PID.TID 0000.0001)                   T
(PID.TID 0000.0001)     ;
(PID.TID 0000.0001) PTRACERS_useDWNSLP = /* apply DOWN-SLOPE Flow */
(PID.TID 0000.0001)                   F
(PID.TID 0000.0001)     ;
(PID.TID 0000.0001) PTRACERS_useKPP = /* apply KPP scheme */
(PID.TID 0000.0001)                   T
(PID.TID 0000.0001)     ;
(PID.TID 0000.0001) PTRACERS_ref = /* Reference vertical profile */
(PID.TID 0000.0001)    23 @  0.000000000000000E+00              /* K =  1: 23 */
(PID.TID 0000.0001)     ;
(PID.TID 0000.0001) PTRACERS_EvPrRn =/* tracer conc. in Evap. & Rain */
(PID.TID 0000.0001)                 1.234567000000000E+05
(PID.TID 0000.0001)     ;
(PID.TID 0000.0001)  -----------------------------------
(PID.TID 0000.0001)  tracer number :   39
(PID.TID 0000.0001) PTRACERS_names = /* Tracer short name */
(PID.TID 0000.0001)               'c20'
(PID.TID 0000.0001)     ;
(PID.TID 0000.0001) PTRACERS_long_names = /* Tracer long name */
(PID.TID 0000.0001)               ''
(PID.TID 0000.0001)     ;
(PID.TID 0000.0001) PTRACERS_ioLabel = /* tracer IO Label */
(PID.TID 0000.0001)               '39'
(PID.TID 0000.0001)     ;
(PID.TID 0000.0001) PTRACERS_advScheme = /* Advection Scheme */
(PID.TID 0000.0001)                      33
(PID.TID 0000.0001)     ;
(PID.TID 0000.0001) PTRACERS_SOM_Advection = /* tracer uses SOM advection scheme */
(PID.TID 0000.0001)                   F
(PID.TID 0000.0001)     ;
(PID.TID 0000.0001) PTRACERS_ImplVertAdv = /* implicit vert. advection flag */
(PID.TID 0000.0001)                   F
(PID.TID 0000.0001)     ;
(PID.TID 0000.0001) PTRACERS_diffKh = /* Laplacian Diffusivity */
(PID.TID 0000.0001)                 0.000000000000000E+00
(PID.TID 0000.0001)     ;
(PID.TID 0000.0001) PTRACERS_diffK4 = /* Biharmonic Diffusivity */
(PID.TID 0000.0001)                 0.000000000000000E+00
(PID.TID 0000.0001)     ;
(PID.TID 0000.0001) PTRACERS_diffKrNr = /* Vertical Diffusivity */
(PID.TID 0000.0001)    23 @  1.000000000000000E-05              /* K =  1: 23 */
(PID.TID 0000.0001)     ;
(PID.TID 0000.0001) PTRACERS_useGMRedi = /* apply GM-Redi */
(PID.TID 0000.0001)                   T
(PID.TID 0000.0001)     ;
(PID.TID 0000.0001) PTRACERS_useDWNSLP = /* apply DOWN-SLOPE Flow */
(PID.TID 0000.0001)                   F
(PID.TID 0000.0001)     ;
(PID.TID 0000.0001) PTRACERS_useKPP = /* apply KPP scheme */
(PID.TID 0000.0001)                   T
(PID.TID 0000.0001)     ;
(PID.TID 0000.0001) PTRACERS_ref = /* Reference vertical profile */
(PID.TID 0000.0001)    23 @  0.000000000000000E+00              /* K =  1: 23 */
(PID.TID 0000.0001)     ;
(PID.TID 0000.0001) PTRACERS_EvPrRn =/* tracer conc. in Evap. & Rain */
(PID.TID 0000.0001)                 1.234567000000000E+05
(PID.TID 0000.0001)     ;
(PID.TID 0000.0001)  -----------------------------------
(PID.TID 0000.0001)  tracer number :   40
(PID.TID 0000.0001) PTRACERS_names = /* Tracer short name */
(PID.TID 0000.0001)               'c21'
(PID.TID 0000.0001)     ;
(PID.TID 0000.0001) PTRACERS_long_names = /* Tracer long name */
(PID.TID 0000.0001)               ''
(PID.TID 0000.0001)     ;
(PID.TID 0000.0001) PTRACERS_ioLabel = /* tracer IO Label */
(PID.TID 0000.0001)               '40'
(PID.TID 0000.0001)     ;
(PID.TID 0000.0001) PTRACERS_advScheme = /* Advection Scheme */
(PID.TID 0000.0001)                      33
(PID.TID 0000.0001)     ;
(PID.TID 0000.0001) PTRACERS_SOM_Advection = /* tracer uses SOM advection scheme */
(PID.TID 0000.0001)                   F
(PID.TID 0000.0001)     ;
(PID.TID 0000.0001) PTRACERS_ImplVertAdv = /* implicit vert. advection flag */
(PID.TID 0000.0001)                   F
(PID.TID 0000.0001)     ;
(PID.TID 0000.0001) PTRACERS_diffKh = /* Laplacian Diffusivity */
(PID.TID 0000.0001)                 0.000000000000000E+00
(PID.TID 0000.0001)     ;
(PID.TID 0000.0001) PTRACERS_diffK4 = /* Biharmonic Diffusivity */
(PID.TID 0000.0001)                 0.000000000000000E+00
(PID.TID 0000.0001)     ;
(PID.TID 0000.0001) PTRACERS_diffKrNr = /* Vertical Diffusivity */
(PID.TID 0000.0001)    23 @  1.000000000000000E-05              /* K =  1: 23 */
(PID.TID 0000.0001)     ;
(PID.TID 0000.0001) PTRACERS_useGMRedi = /* apply GM-Redi */
(PID.TID 0000.0001)                   T
(PID.TID 0000.0001)     ;
(PID.TID 0000.0001) PTRACERS_useDWNSLP = /* apply DOWN-SLOPE Flow */
(PID.TID 0000.0001)                   F
(PID.TID 0000.0001)     ;
(PID.TID 0000.0001) PTRACERS_useKPP = /* apply KPP scheme */
(PID.TID 0000.0001)                   T
(PID.TID 0000.0001)     ;
(PID.TID 0000.0001) PTRACERS_ref = /* Reference vertical profile */
(PID.TID 0000.0001)    23 @  0.000000000000000E+00              /* K =  1: 23 */
(PID.TID 0000.0001)     ;
(PID.TID 0000.0001) PTRACERS_EvPrRn =/* tracer conc. in Evap. & Rain */
(PID.TID 0000.0001)                 1.234567000000000E+05
(PID.TID 0000.0001)     ;
(PID.TID 0000.0001)  -----------------------------------
(PID.TID 0000.0001)  tracer number :   41
(PID.TID 0000.0001) PTRACERS_names = /* Tracer short name */
(PID.TID 0000.0001)               'c22'
(PID.TID 0000.0001)     ;
(PID.TID 0000.0001) PTRACERS_long_names = /* Tracer long name */
(PID.TID 0000.0001)               ''
(PID.TID 0000.0001)     ;
(PID.TID 0000.0001) PTRACERS_ioLabel = /* tracer IO Label */
(PID.TID 0000.0001)               '41'
(PID.TID 0000.0001)     ;
(PID.TID 0000.0001) PTRACERS_advScheme = /* Advection Scheme */
(PID.TID 0000.0001)                      33
(PID.TID 0000.0001)     ;
(PID.TID 0000.0001) PTRACERS_SOM_Advection = /* tracer uses SOM advection scheme */
(PID.TID 0000.0001)                   F
(PID.TID 0000.0001)     ;
(PID.TID 0000.0001) PTRACERS_ImplVertAdv = /* implicit vert. advection flag */
(PID.TID 0000.0001)                   F
(PID.TID 0000.0001)     ;
(PID.TID 0000.0001) PTRACERS_diffKh = /* Laplacian Diffusivity */
(PID.TID 0000.0001)                 0.000000000000000E+00
(PID.TID 0000.0001)     ;
(PID.TID 0000.0001) PTRACERS_diffK4 = /* Biharmonic Diffusivity */
(PID.TID 0000.0001)                 0.000000000000000E+00
(PID.TID 0000.0001)     ;
(PID.TID 0000.0001) PTRACERS_diffKrNr = /* Vertical Diffusivity */
(PID.TID 0000.0001)    23 @  1.000000000000000E-05              /* K =  1: 23 */
(PID.TID 0000.0001)     ;
(PID.TID 0000.0001) PTRACERS_useGMRedi = /* apply GM-Redi */
(PID.TID 0000.0001)                   T
(PID.TID 0000.0001)     ;
(PID.TID 0000.0001) PTRACERS_useDWNSLP = /* apply DOWN-SLOPE Flow */
(PID.TID 0000.0001)                   F
(PID.TID 0000.0001)     ;
(PID.TID 0000.0001) PTRACERS_useKPP = /* apply KPP scheme */
(PID.TID 0000.0001)                   T
(PID.TID 0000.0001)     ;
(PID.TID 0000.0001) PTRACERS_ref = /* Reference vertical profile */
(PID.TID 0000.0001)    23 @  0.000000000000000E+00              /* K =  1: 23 */
(PID.TID 0000.0001)     ;
(PID.TID 0000.0001) PTRACERS_EvPrRn =/* tracer conc. in Evap. & Rain */
(PID.TID 0000.0001)                 1.234567000000000E+05
(PID.TID 0000.0001)     ;
(PID.TID 0000.0001)  -----------------------------------
(PID.TID 0000.0001)  tracer number :   42
(PID.TID 0000.0001) PTRACERS_names = /* Tracer short name */
(PID.TID 0000.0001)               'c23'
(PID.TID 0000.0001)     ;
(PID.TID 0000.0001) PTRACERS_long_names = /* Tracer long name */
(PID.TID 0000.0001)               ''
(PID.TID 0000.0001)     ;
(PID.TID 0000.0001) PTRACERS_ioLabel = /* tracer IO Label */
(PID.TID 0000.0001)               '42'
(PID.TID 0000.0001)     ;
(PID.TID 0000.0001) PTRACERS_advScheme = /* Advection Scheme */
(PID.TID 0000.0001)                      33
(PID.TID 0000.0001)     ;
(PID.TID 0000.0001) PTRACERS_SOM_Advection = /* tracer uses SOM advection scheme */
(PID.TID 0000.0001)                   F
(PID.TID 0000.0001)     ;
(PID.TID 0000.0001) PTRACERS_ImplVertAdv = /* implicit vert. advection flag */
(PID.TID 0000.0001)                   F
(PID.TID 0000.0001)     ;
(PID.TID 0000.0001) PTRACERS_diffKh = /* Laplacian Diffusivity */
(PID.TID 0000.0001)                 0.000000000000000E+00
(PID.TID 0000.0001)     ;
(PID.TID 0000.0001) PTRACERS_diffK4 = /* Biharmonic Diffusivity */
(PID.TID 0000.0001)                 0.000000000000000E+00
(PID.TID 0000.0001)     ;
(PID.TID 0000.0001) PTRACERS_diffKrNr = /* Vertical Diffusivity */
(PID.TID 0000.0001)    23 @  1.000000000000000E-05              /* K =  1: 23 */
(PID.TID 0000.0001)     ;
(PID.TID 0000.0001) PTRACERS_useGMRedi = /* apply GM-Redi */
(PID.TID 0000.0001)                   T
(PID.TID 0000.0001)     ;
(PID.TID 0000.0001) PTRACERS_useDWNSLP = /* apply DOWN-SLOPE Flow */
(PID.TID 0000.0001)                   F
(PID.TID 0000.0001)     ;
(PID.TID 0000.0001) PTRACERS_useKPP = /* apply KPP scheme */
(PID.TID 0000.0001)                   T
(PID.TID 0000.0001)     ;
(PID.TID 0000.0001) PTRACERS_ref = /* Reference vertical profile */
(PID.TID 0000.0001)    23 @  0.000000000000000E+00              /* K =  1: 23 */
(PID.TID 0000.0001)     ;
(PID.TID 0000.0001) PTRACERS_EvPrRn =/* tracer conc. in Evap. & Rain */
(PID.TID 0000.0001)                 1.234567000000000E+05
(PID.TID 0000.0001)     ;
(PID.TID 0000.0001)  -----------------------------------
(PID.TID 0000.0001)  tracer number :   43
(PID.TID 0000.0001) PTRACERS_names = /* Tracer short name */
(PID.TID 0000.0001)               'c24'
(PID.TID 0000.0001)     ;
(PID.TID 0000.0001) PTRACERS_long_names = /* Tracer long name */
(PID.TID 0000.0001)               ''
(PID.TID 0000.0001)     ;
(PID.TID 0000.0001) PTRACERS_ioLabel = /* tracer IO Label */
(PID.TID 0000.0001)               '43'
(PID.TID 0000.0001)     ;
(PID.TID 0000.0001) PTRACERS_advScheme = /* Advection Scheme */
(PID.TID 0000.0001)                      33
(PID.TID 0000.0001)     ;
(PID.TID 0000.0001) PTRACERS_SOM_Advection = /* tracer uses SOM advection scheme */
(PID.TID 0000.0001)                   F
(PID.TID 0000.0001)     ;
(PID.TID 0000.0001) PTRACERS_ImplVertAdv = /* implicit vert. advection flag */
(PID.TID 0000.0001)                   F
(PID.TID 0000.0001)     ;
(PID.TID 0000.0001) PTRACERS_diffKh = /* Laplacian Diffusivity */
(PID.TID 0000.0001)                 0.000000000000000E+00
(PID.TID 0000.0001)     ;
(PID.TID 0000.0001) PTRACERS_diffK4 = /* Biharmonic Diffusivity */
(PID.TID 0000.0001)                 0.000000000000000E+00
(PID.TID 0000.0001)     ;
(PID.TID 0000.0001) PTRACERS_diffKrNr = /* Vertical Diffusivity */
(PID.TID 0000.0001)    23 @  1.000000000000000E-05              /* K =  1: 23 */
(PID.TID 0000.0001)     ;
(PID.TID 0000.0001) PTRACERS_useGMRedi = /* apply GM-Redi */
(PID.TID 0000.0001)                   T
(PID.TID 0000.0001)     ;
(PID.TID 0000.0001) PTRACERS_useDWNSLP = /* apply DOWN-SLOPE Flow */
(PID.TID 0000.0001)                   F
(PID.TID 0000.0001)     ;
(PID.TID 0000.0001) PTRACERS_useKPP = /* apply KPP scheme */
(PID.TID 0000.0001)                   T
(PID.TID 0000.0001)     ;
(PID.TID 0000.0001) PTRACERS_ref = /* Reference vertical profile */
(PID.TID 0000.0001)    23 @  0.000000000000000E+00              /* K =  1: 23 */
(PID.TID 0000.0001)     ;
(PID.TID 0000.0001) PTRACERS_EvPrRn =/* tracer conc. in Evap. & Rain */
(PID.TID 0000.0001)                 1.234567000000000E+05
(PID.TID 0000.0001)     ;
(PID.TID 0000.0001)  -----------------------------------
(PID.TID 0000.0001)  tracer number :   44
(PID.TID 0000.0001) PTRACERS_names = /* Tracer short name */
(PID.TID 0000.0001)               'c25'
(PID.TID 0000.0001)     ;
(PID.TID 0000.0001) PTRACERS_long_names = /* Tracer long name */
(PID.TID 0000.0001)               ''
(PID.TID 0000.0001)     ;
(PID.TID 0000.0001) PTRACERS_ioLabel = /* tracer IO Label */
(PID.TID 0000.0001)               '44'
(PID.TID 0000.0001)     ;
(PID.TID 0000.0001) PTRACERS_advScheme = /* Advection Scheme */
(PID.TID 0000.0001)                      33
(PID.TID 0000.0001)     ;
(PID.TID 0000.0001) PTRACERS_SOM_Advection = /* tracer uses SOM advection scheme */
(PID.TID 0000.0001)                   F
(PID.TID 0000.0001)     ;
(PID.TID 0000.0001) PTRACERS_ImplVertAdv = /* implicit vert. advection flag */
(PID.TID 0000.0001)                   F
(PID.TID 0000.0001)     ;
(PID.TID 0000.0001) PTRACERS_diffKh = /* Laplacian Diffusivity */
(PID.TID 0000.0001)                 0.000000000000000E+00
(PID.TID 0000.0001)     ;
(PID.TID 0000.0001) PTRACERS_diffK4 = /* Biharmonic Diffusivity */
(PID.TID 0000.0001)                 0.000000000000000E+00
(PID.TID 0000.0001)     ;
(PID.TID 0000.0001) PTRACERS_diffKrNr = /* Vertical Diffusivity */
(PID.TID 0000.0001)    23 @  1.000000000000000E-05              /* K =  1: 23 */
(PID.TID 0000.0001)     ;
(PID.TID 0000.0001) PTRACERS_useGMRedi = /* apply GM-Redi */
(PID.TID 0000.0001)                   T
(PID.TID 0000.0001)     ;
(PID.TID 0000.0001) PTRACERS_useDWNSLP = /* apply DOWN-SLOPE Flow */
(PID.TID 0000.0001)                   F
(PID.TID 0000.0001)     ;
(PID.TID 0000.0001) PTRACERS_useKPP = /* apply KPP scheme */
(PID.TID 0000.0001)                   T
(PID.TID 0000.0001)     ;
(PID.TID 0000.0001) PTRACERS_ref = /* Reference vertical profile */
(PID.TID 0000.0001)    23 @  0.000000000000000E+00              /* K =  1: 23 */
(PID.TID 0000.0001)     ;
(PID.TID 0000.0001) PTRACERS_EvPrRn =/* tracer conc. in Evap. & Rain */
(PID.TID 0000.0001)                 1.234567000000000E+05
(PID.TID 0000.0001)     ;
(PID.TID 0000.0001)  -----------------------------------
(PID.TID 0000.0001)  tracer number :   45
(PID.TID 0000.0001) PTRACERS_names = /* Tracer short name */
(PID.TID 0000.0001)               'c26'
(PID.TID 0000.0001)     ;
(PID.TID 0000.0001) PTRACERS_long_names = /* Tracer long name */
(PID.TID 0000.0001)               ''
(PID.TID 0000.0001)     ;
(PID.TID 0000.0001) PTRACERS_ioLabel = /* tracer IO Label */
(PID.TID 0000.0001)               '45'
(PID.TID 0000.0001)     ;
(PID.TID 0000.0001) PTRACERS_advScheme = /* Advection Scheme */
(PID.TID 0000.0001)                      33
(PID.TID 0000.0001)     ;
(PID.TID 0000.0001) PTRACERS_SOM_Advection = /* tracer uses SOM advection scheme */
(PID.TID 0000.0001)                   F
(PID.TID 0000.0001)     ;
(PID.TID 0000.0001) PTRACERS_ImplVertAdv = /* implicit vert. advection flag */
(PID.TID 0000.0001)                   F
(PID.TID 0000.0001)     ;
(PID.TID 0000.0001) PTRACERS_diffKh = /* Laplacian Diffusivity */
(PID.TID 0000.0001)                 0.000000000000000E+00
(PID.TID 0000.0001)     ;
(PID.TID 0000.0001) PTRACERS_diffK4 = /* Biharmonic Diffusivity */
(PID.TID 0000.0001)                 0.000000000000000E+00
(PID.TID 0000.0001)     ;
(PID.TID 0000.0001) PTRACERS_diffKrNr = /* Vertical Diffusivity */
(PID.TID 0000.0001)    23 @  1.000000000000000E-05              /* K =  1: 23 */
(PID.TID 0000.0001)     ;
(PID.TID 0000.0001) PTRACERS_useGMRedi = /* apply GM-Redi */
(PID.TID 0000.0001)                   T
(PID.TID 0000.0001)     ;
(PID.TID 0000.0001) PTRACERS_useDWNSLP = /* apply DOWN-SLOPE Flow */
(PID.TID 0000.0001)                   F
(PID.TID 0000.0001)     ;
(PID.TID 0000.0001) PTRACERS_useKPP = /* apply KPP scheme */
(PID.TID 0000.0001)                   T
(PID.TID 0000.0001)     ;
(PID.TID 0000.0001) PTRACERS_ref = /* Reference vertical profile */
(PID.TID 0000.0001)    23 @  0.000000000000000E+00              /* K =  1: 23 */
(PID.TID 0000.0001)     ;
(PID.TID 0000.0001) PTRACERS_EvPrRn =/* tracer conc. in Evap. & Rain */
(PID.TID 0000.0001)                 1.234567000000000E+05
(PID.TID 0000.0001)     ;
(PID.TID 0000.0001)  -----------------------------------
(PID.TID 0000.0001)  tracer number :   46
(PID.TID 0000.0001) PTRACERS_names = /* Tracer short name */
(PID.TID 0000.0001)               'c27'
(PID.TID 0000.0001)     ;
(PID.TID 0000.0001) PTRACERS_long_names = /* Tracer long name */
(PID.TID 0000.0001)               ''
(PID.TID 0000.0001)     ;
(PID.TID 0000.0001) PTRACERS_ioLabel = /* tracer IO Label */
(PID.TID 0000.0001)               '46'
(PID.TID 0000.0001)     ;
(PID.TID 0000.0001) PTRACERS_advScheme = /* Advection Scheme */
(PID.TID 0000.0001)                      33
(PID.TID 0000.0001)     ;
(PID.TID 0000.0001) PTRACERS_SOM_Advection = /* tracer uses SOM advection scheme */
(PID.TID 0000.0001)                   F
(PID.TID 0000.0001)     ;
(PID.TID 0000.0001) PTRACERS_ImplVertAdv = /* implicit vert. advection flag */
(PID.TID 0000.0001)                   F
(PID.TID 0000.0001)     ;
(PID.TID 0000.0001) PTRACERS_diffKh = /* Laplacian Diffusivity */
(PID.TID 0000.0001)                 0.000000000000000E+00
(PID.TID 0000.0001)     ;
(PID.TID 0000.0001) PTRACERS_diffK4 = /* Biharmonic Diffusivity */
(PID.TID 0000.0001)                 0.000000000000000E+00
(PID.TID 0000.0001)     ;
(PID.TID 0000.0001) PTRACERS_diffKrNr = /* Vertical Diffusivity */
(PID.TID 0000.0001)    23 @  1.000000000000000E-05              /* K =  1: 23 */
(PID.TID 0000.0001)     ;
(PID.TID 0000.0001) PTRACERS_useGMRedi = /* apply GM-Redi */
(PID.TID 0000.0001)                   T
(PID.TID 0000.0001)     ;
(PID.TID 0000.0001) PTRACERS_useDWNSLP = /* apply DOWN-SLOPE Flow */
(PID.TID 0000.0001)                   F
(PID.TID 0000.0001)     ;
(PID.TID 0000.0001) PTRACERS_useKPP = /* apply KPP scheme */
(PID.TID 0000.0001)                   T
(PID.TID 0000.0001)     ;
(PID.TID 0000.0001) PTRACERS_ref = /* Reference vertical profile */
(PID.TID 0000.0001)    23 @  0.000000000000000E+00              /* K =  1: 23 */
(PID.TID 0000.0001)     ;
(PID.TID 0000.0001) PTRACERS_EvPrRn =/* tracer conc. in Evap. & Rain */
(PID.TID 0000.0001)                 1.234567000000000E+05
(PID.TID 0000.0001)     ;
(PID.TID 0000.0001)  -----------------------------------
(PID.TID 0000.0001)  tracer number :   47
(PID.TID 0000.0001) PTRACERS_names = /* Tracer short name */
(PID.TID 0000.0001)               'c28'
(PID.TID 0000.0001)     ;
(PID.TID 0000.0001) PTRACERS_long_names = /* Tracer long name */
(PID.TID 0000.0001)               ''
(PID.TID 0000.0001)     ;
(PID.TID 0000.0001) PTRACERS_ioLabel = /* tracer IO Label */
(PID.TID 0000.0001)               '47'
(PID.TID 0000.0001)     ;
(PID.TID 0000.0001) PTRACERS_advScheme = /* Advection Scheme */
(PID.TID 0000.0001)                      33
(PID.TID 0000.0001)     ;
(PID.TID 0000.0001) PTRACERS_SOM_Advection = /* tracer uses SOM advection scheme */
(PID.TID 0000.0001)                   F
(PID.TID 0000.0001)     ;
(PID.TID 0000.0001) PTRACERS_ImplVertAdv = /* implicit vert. advection flag */
(PID.TID 0000.0001)                   F
(PID.TID 0000.0001)     ;
(PID.TID 0000.0001) PTRACERS_diffKh = /* Laplacian Diffusivity */
(PID.TID 0000.0001)                 0.000000000000000E+00
(PID.TID 0000.0001)     ;
(PID.TID 0000.0001) PTRACERS_diffK4 = /* Biharmonic Diffusivity */
(PID.TID 0000.0001)                 0.000000000000000E+00
(PID.TID 0000.0001)     ;
(PID.TID 0000.0001) PTRACERS_diffKrNr = /* Vertical Diffusivity */
(PID.TID 0000.0001)    23 @  1.000000000000000E-05              /* K =  1: 23 */
(PID.TID 0000.0001)     ;
(PID.TID 0000.0001) PTRACERS_useGMRedi = /* apply GM-Redi */
(PID.TID 0000.0001)                   T
(PID.TID 0000.0001)     ;
(PID.TID 0000.0001) PTRACERS_useDWNSLP = /* apply DOWN-SLOPE Flow */
(PID.TID 0000.0001)                   F
(PID.TID 0000.0001)     ;
(PID.TID 0000.0001) PTRACERS_useKPP = /* apply KPP scheme */
(PID.TID 0000.0001)                   T
(PID.TID 0000.0001)     ;
(PID.TID 0000.0001) PTRACERS_ref = /* Reference vertical profile */
(PID.TID 0000.0001)    23 @  0.000000000000000E+00              /* K =  1: 23 */
(PID.TID 0000.0001)     ;
(PID.TID 0000.0001) PTRACERS_EvPrRn =/* tracer conc. in Evap. & Rain */
(PID.TID 0000.0001)                 1.234567000000000E+05
(PID.TID 0000.0001)     ;
(PID.TID 0000.0001)  -----------------------------------
(PID.TID 0000.0001)  tracer number :   48
(PID.TID 0000.0001) PTRACERS_names = /* Tracer short name */
(PID.TID 0000.0001)               'c29'
(PID.TID 0000.0001)     ;
(PID.TID 0000.0001) PTRACERS_long_names = /* Tracer long name */
(PID.TID 0000.0001)               ''
(PID.TID 0000.0001)     ;
(PID.TID 0000.0001) PTRACERS_ioLabel = /* tracer IO Label */
(PID.TID 0000.0001)               '48'
(PID.TID 0000.0001)     ;
(PID.TID 0000.0001) PTRACERS_advScheme = /* Advection Scheme */
(PID.TID 0000.0001)                      33
(PID.TID 0000.0001)     ;
(PID.TID 0000.0001) PTRACERS_SOM_Advection = /* tracer uses SOM advection scheme */
(PID.TID 0000.0001)                   F
(PID.TID 0000.0001)     ;
(PID.TID 0000.0001) PTRACERS_ImplVertAdv = /* implicit vert. advection flag */
(PID.TID 0000.0001)                   F
(PID.TID 0000.0001)     ;
(PID.TID 0000.0001) PTRACERS_diffKh = /* Laplacian Diffusivity */
(PID.TID 0000.0001)                 0.000000000000000E+00
(PID.TID 0000.0001)     ;
(PID.TID 0000.0001) PTRACERS_diffK4 = /* Biharmonic Diffusivity */
(PID.TID 0000.0001)                 0.000000000000000E+00
(PID.TID 0000.0001)     ;
(PID.TID 0000.0001) PTRACERS_diffKrNr = /* Vertical Diffusivity */
(PID.TID 0000.0001)    23 @  1.000000000000000E-05              /* K =  1: 23 */
(PID.TID 0000.0001)     ;
(PID.TID 0000.0001) PTRACERS_useGMRedi = /* apply GM-Redi */
(PID.TID 0000.0001)                   T
(PID.TID 0000.0001)     ;
(PID.TID 0000.0001) PTRACERS_useDWNSLP = /* apply DOWN-SLOPE Flow */
(PID.TID 0000.0001)                   F
(PID.TID 0000.0001)     ;
(PID.TID 0000.0001) PTRACERS_useKPP = /* apply KPP scheme */
(PID.TID 0000.0001)                   T
(PID.TID 0000.0001)     ;
(PID.TID 0000.0001) PTRACERS_ref = /* Reference vertical profile */
(PID.TID 0000.0001)    23 @  0.000000000000000E+00              /* K =  1: 23 */
(PID.TID 0000.0001)     ;
(PID.TID 0000.0001) PTRACERS_EvPrRn =/* tracer conc. in Evap. & Rain */
(PID.TID 0000.0001)                 1.234567000000000E+05
(PID.TID 0000.0001)     ;
(PID.TID 0000.0001)  -----------------------------------
(PID.TID 0000.0001)  tracer number :   49
(PID.TID 0000.0001) PTRACERS_names = /* Tracer short name */
(PID.TID 0000.0001)               'c30'
(PID.TID 0000.0001)     ;
(PID.TID 0000.0001) PTRACERS_long_names = /* Tracer long name */
(PID.TID 0000.0001)               ''
(PID.TID 0000.0001)     ;
(PID.TID 0000.0001) PTRACERS_ioLabel = /* tracer IO Label */
(PID.TID 0000.0001)               '49'
(PID.TID 0000.0001)     ;
(PID.TID 0000.0001) PTRACERS_advScheme = /* Advection Scheme */
(PID.TID 0000.0001)                      33
(PID.TID 0000.0001)     ;
(PID.TID 0000.0001) PTRACERS_SOM_Advection = /* tracer uses SOM advection scheme */
(PID.TID 0000.0001)                   F
(PID.TID 0000.0001)     ;
(PID.TID 0000.0001) PTRACERS_ImplVertAdv = /* implicit vert. advection flag */
(PID.TID 0000.0001)                   F
(PID.TID 0000.0001)     ;
(PID.TID 0000.0001) PTRACERS_diffKh = /* Laplacian Diffusivity */
(PID.TID 0000.0001)                 0.000000000000000E+00
(PID.TID 0000.0001)     ;
(PID.TID 0000.0001) PTRACERS_diffK4 = /* Biharmonic Diffusivity */
(PID.TID 0000.0001)                 0.000000000000000E+00
(PID.TID 0000.0001)     ;
(PID.TID 0000.0001) PTRACERS_diffKrNr = /* Vertical Diffusivity */
(PID.TID 0000.0001)    23 @  1.000000000000000E-05              /* K =  1: 23 */
(PID.TID 0000.0001)     ;
(PID.TID 0000.0001) PTRACERS_useGMRedi = /* apply GM-Redi */
(PID.TID 0000.0001)                   T
(PID.TID 0000.0001)     ;
(PID.TID 0000.0001) PTRACERS_useDWNSLP = /* apply DOWN-SLOPE Flow */
(PID.TID 0000.0001)                   F
(PID.TID 0000.0001)     ;
(PID.TID 0000.0001) PTRACERS_useKPP = /* apply KPP scheme */
(PID.TID 0000.0001)                   T
(PID.TID 0000.0001)     ;
(PID.TID 0000.0001) PTRACERS_ref = /* Reference vertical profile */
(PID.TID 0000.0001)    23 @  0.000000000000000E+00              /* K =  1: 23 */
(PID.TID 0000.0001)     ;
(PID.TID 0000.0001) PTRACERS_EvPrRn =/* tracer conc. in Evap. & Rain */
(PID.TID 0000.0001)                 1.234567000000000E+05
(PID.TID 0000.0001)     ;
(PID.TID 0000.0001)  -----------------------------------
(PID.TID 0000.0001)  tracer number :   50
(PID.TID 0000.0001) PTRACERS_names = /* Tracer short name */
(PID.TID 0000.0001)               'c31'
(PID.TID 0000.0001)     ;
(PID.TID 0000.0001) PTRACERS_long_names = /* Tracer long name */
(PID.TID 0000.0001)               ''
(PID.TID 0000.0001)     ;
(PID.TID 0000.0001) PTRACERS_ioLabel = /* tracer IO Label */
(PID.TID 0000.0001)               '50'
(PID.TID 0000.0001)     ;
(PID.TID 0000.0001) PTRACERS_advScheme = /* Advection Scheme */
(PID.TID 0000.0001)                      33
(PID.TID 0000.0001)     ;
(PID.TID 0000.0001) PTRACERS_SOM_Advection = /* tracer uses SOM advection scheme */
(PID.TID 0000.0001)                   F
(PID.TID 0000.0001)     ;
(PID.TID 0000.0001) PTRACERS_ImplVertAdv = /* implicit vert. advection flag */
(PID.TID 0000.0001)                   F
(PID.TID 0000.0001)     ;
(PID.TID 0000.0001) PTRACERS_diffKh = /* Laplacian Diffusivity */
(PID.TID 0000.0001)                 0.000000000000000E+00
(PID.TID 0000.0001)     ;
(PID.TID 0000.0001) PTRACERS_diffK4 = /* Biharmonic Diffusivity */
(PID.TID 0000.0001)                 0.000000000000000E+00
(PID.TID 0000.0001)     ;
(PID.TID 0000.0001) PTRACERS_diffKrNr = /* Vertical Diffusivity */
(PID.TID 0000.0001)    23 @  1.000000000000000E-05              /* K =  1: 23 */
(PID.TID 0000.0001)     ;
(PID.TID 0000.0001) PTRACERS_useGMRedi = /* apply GM-Redi */
(PID.TID 0000.0001)                   T
(PID.TID 0000.0001)     ;
(PID.TID 0000.0001) PTRACERS_useDWNSLP = /* apply DOWN-SLOPE Flow */
(PID.TID 0000.0001)                   F
(PID.TID 0000.0001)     ;
(PID.TID 0000.0001) PTRACERS_useKPP = /* apply KPP scheme */
(PID.TID 0000.0001)                   T
(PID.TID 0000.0001)     ;
(PID.TID 0000.0001) PTRACERS_ref = /* Reference vertical profile */
(PID.TID 0000.0001)    23 @  0.000000000000000E+00              /* K =  1: 23 */
(PID.TID 0000.0001)     ;
(PID.TID 0000.0001) PTRACERS_EvPrRn =/* tracer conc. in Evap. & Rain */
(PID.TID 0000.0001)                 1.234567000000000E+05
(PID.TID 0000.0001)     ;
(PID.TID 0000.0001)  -----------------------------------
(PID.TID 0000.0001)  tracer number :   51
(PID.TID 0000.0001) PTRACERS_names = /* Tracer short name */
(PID.TID 0000.0001)               'c32'
(PID.TID 0000.0001)     ;
(PID.TID 0000.0001) PTRACERS_long_names = /* Tracer long name */
(PID.TID 0000.0001)               ''
(PID.TID 0000.0001)     ;
(PID.TID 0000.0001) PTRACERS_ioLabel = /* tracer IO Label */
(PID.TID 0000.0001)               '51'
(PID.TID 0000.0001)     ;
(PID.TID 0000.0001) PTRACERS_advScheme = /* Advection Scheme */
(PID.TID 0000.0001)                      33
(PID.TID 0000.0001)     ;
(PID.TID 0000.0001) PTRACERS_SOM_Advection = /* tracer uses SOM advection scheme */
(PID.TID 0000.0001)                   F
(PID.TID 0000.0001)     ;
(PID.TID 0000.0001) PTRACERS_ImplVertAdv = /* implicit vert. advection flag */
(PID.TID 0000.0001)                   F
(PID.TID 0000.0001)     ;
(PID.TID 0000.0001) PTRACERS_diffKh = /* Laplacian Diffusivity */
(PID.TID 0000.0001)                 0.000000000000000E+00
(PID.TID 0000.0001)     ;
(PID.TID 0000.0001) PTRACERS_diffK4 = /* Biharmonic Diffusivity */
(PID.TID 0000.0001)                 0.000000000000000E+00
(PID.TID 0000.0001)     ;
(PID.TID 0000.0001) PTRACERS_diffKrNr = /* Vertical Diffusivity */
(PID.TID 0000.0001)    23 @  1.000000000000000E-05              /* K =  1: 23 */
(PID.TID 0000.0001)     ;
(PID.TID 0000.0001) PTRACERS_useGMRedi = /* apply GM-Redi */
(PID.TID 0000.0001)                   T
(PID.TID 0000.0001)     ;
(PID.TID 0000.0001) PTRACERS_useDWNSLP = /* apply DOWN-SLOPE Flow */
(PID.TID 0000.0001)                   F
(PID.TID 0000.0001)     ;
(PID.TID 0000.0001) PTRACERS_useKPP = /* apply KPP scheme */
(PID.TID 0000.0001)                   T
(PID.TID 0000.0001)     ;
(PID.TID 0000.0001) PTRACERS_ref = /* Reference vertical profile */
(PID.TID 0000.0001)    23 @  0.000000000000000E+00              /* K =  1: 23 */
(PID.TID 0000.0001)     ;
(PID.TID 0000.0001) PTRACERS_EvPrRn =/* tracer conc. in Evap. & Rain */
(PID.TID 0000.0001)                 1.234567000000000E+05
(PID.TID 0000.0001)     ;
(PID.TID 0000.0001)  -----------------------------------
(PID.TID 0000.0001)  tracer number :   52
(PID.TID 0000.0001) PTRACERS_names = /* Tracer short name */
(PID.TID 0000.0001)               'c33'
(PID.TID 0000.0001)     ;
(PID.TID 0000.0001) PTRACERS_long_names = /* Tracer long name */
(PID.TID 0000.0001)               ''
(PID.TID 0000.0001)     ;
(PID.TID 0000.0001) PTRACERS_ioLabel = /* tracer IO Label */
(PID.TID 0000.0001)               '52'
(PID.TID 0000.0001)     ;
(PID.TID 0000.0001) PTRACERS_advScheme = /* Advection Scheme */
(PID.TID 0000.0001)                      33
(PID.TID 0000.0001)     ;
(PID.TID 0000.0001) PTRACERS_SOM_Advection = /* tracer uses SOM advection scheme */
(PID.TID 0000.0001)                   F
(PID.TID 0000.0001)     ;
(PID.TID 0000.0001) PTRACERS_ImplVertAdv = /* implicit vert. advection flag */
(PID.TID 0000.0001)                   F
(PID.TID 0000.0001)     ;
(PID.TID 0000.0001) PTRACERS_diffKh = /* Laplacian Diffusivity */
(PID.TID 0000.0001)                 0.000000000000000E+00
(PID.TID 0000.0001)     ;
(PID.TID 0000.0001) PTRACERS_diffK4 = /* Biharmonic Diffusivity */
(PID.TID 0000.0001)                 0.000000000000000E+00
(PID.TID 0000.0001)     ;
(PID.TID 0000.0001) PTRACERS_diffKrNr = /* Vertical Diffusivity */
(PID.TID 0000.0001)    23 @  1.000000000000000E-05              /* K =  1: 23 */
(PID.TID 0000.0001)     ;
(PID.TID 0000.0001) PTRACERS_useGMRedi = /* apply GM-Redi */
(PID.TID 0000.0001)                   T
(PID.TID 0000.0001)     ;
(PID.TID 0000.0001) PTRACERS_useDWNSLP = /* apply DOWN-SLOPE Flow */
(PID.TID 0000.0001)                   F
(PID.TID 0000.0001)     ;
(PID.TID 0000.0001) PTRACERS_useKPP = /* apply KPP scheme */
(PID.TID 0000.0001)                   T
(PID.TID 0000.0001)     ;
(PID.TID 0000.0001) PTRACERS_ref = /* Reference vertical profile */
(PID.TID 0000.0001)    23 @  0.000000000000000E+00              /* K =  1: 23 */
(PID.TID 0000.0001)     ;
(PID.TID 0000.0001) PTRACERS_EvPrRn =/* tracer conc. in Evap. & Rain */
(PID.TID 0000.0001)                 1.234567000000000E+05
(PID.TID 0000.0001)     ;
(PID.TID 0000.0001)  -----------------------------------
(PID.TID 0000.0001)  tracer number :   53
(PID.TID 0000.0001) PTRACERS_names = /* Tracer short name */
(PID.TID 0000.0001)               'c34'
(PID.TID 0000.0001)     ;
(PID.TID 0000.0001) PTRACERS_long_names = /* Tracer long name */
(PID.TID 0000.0001)               ''
(PID.TID 0000.0001)     ;
(PID.TID 0000.0001) PTRACERS_ioLabel = /* tracer IO Label */
(PID.TID 0000.0001)               '53'
(PID.TID 0000.0001)     ;
(PID.TID 0000.0001) PTRACERS_advScheme = /* Advection Scheme */
(PID.TID 0000.0001)                      33
(PID.TID 0000.0001)     ;
(PID.TID 0000.0001) PTRACERS_SOM_Advection = /* tracer uses SOM advection scheme */
(PID.TID 0000.0001)                   F
(PID.TID 0000.0001)     ;
(PID.TID 0000.0001) PTRACERS_ImplVertAdv = /* implicit vert. advection flag */
(PID.TID 0000.0001)                   F
(PID.TID 0000.0001)     ;
(PID.TID 0000.0001) PTRACERS_diffKh = /* Laplacian Diffusivity */
(PID.TID 0000.0001)                 0.000000000000000E+00
(PID.TID 0000.0001)     ;
(PID.TID 0000.0001) PTRACERS_diffK4 = /* Biharmonic Diffusivity */
(PID.TID 0000.0001)                 0.000000000000000E+00
(PID.TID 0000.0001)     ;
(PID.TID 0000.0001) PTRACERS_diffKrNr = /* Vertical Diffusivity */
(PID.TID 0000.0001)    23 @  1.000000000000000E-05              /* K =  1: 23 */
(PID.TID 0000.0001)     ;
(PID.TID 0000.0001) PTRACERS_useGMRedi = /* apply GM-Redi */
(PID.TID 0000.0001)                   T
(PID.TID 0000.0001)     ;
(PID.TID 0000.0001) PTRACERS_useDWNSLP = /* apply DOWN-SLOPE Flow */
(PID.TID 0000.0001)                   F
(PID.TID 0000.0001)     ;
(PID.TID 0000.0001) PTRACERS_useKPP = /* apply KPP scheme */
(PID.TID 0000.0001)                   T
(PID.TID 0000.0001)     ;
(PID.TID 0000.0001) PTRACERS_ref = /* Reference vertical profile */
(PID.TID 0000.0001)    23 @  0.000000000000000E+00              /* K =  1: 23 */
(PID.TID 0000.0001)     ;
(PID.TID 0000.0001) PTRACERS_EvPrRn =/* tracer conc. in Evap. & Rain */
(PID.TID 0000.0001)                 1.234567000000000E+05
(PID.TID 0000.0001)     ;
(PID.TID 0000.0001)  -----------------------------------
(PID.TID 0000.0001)  tracer number :   54
(PID.TID 0000.0001) PTRACERS_names = /* Tracer short name */
(PID.TID 0000.0001)               'c35'
(PID.TID 0000.0001)     ;
(PID.TID 0000.0001) PTRACERS_long_names = /* Tracer long name */
(PID.TID 0000.0001)               ''
(PID.TID 0000.0001)     ;
(PID.TID 0000.0001) PTRACERS_ioLabel = /* tracer IO Label */
(PID.TID 0000.0001)               '54'
(PID.TID 0000.0001)     ;
(PID.TID 0000.0001) PTRACERS_advScheme = /* Advection Scheme */
(PID.TID 0000.0001)                      33
(PID.TID 0000.0001)     ;
(PID.TID 0000.0001) PTRACERS_SOM_Advection = /* tracer uses SOM advection scheme */
(PID.TID 0000.0001)                   F
(PID.TID 0000.0001)     ;
(PID.TID 0000.0001) PTRACERS_ImplVertAdv = /* implicit vert. advection flag */
(PID.TID 0000.0001)                   F
(PID.TID 0000.0001)     ;
(PID.TID 0000.0001) PTRACERS_diffKh = /* Laplacian Diffusivity */
(PID.TID 0000.0001)                 0.000000000000000E+00
(PID.TID 0000.0001)     ;
(PID.TID 0000.0001) PTRACERS_diffK4 = /* Biharmonic Diffusivity */
(PID.TID 0000.0001)                 0.000000000000000E+00
(PID.TID 0000.0001)     ;
(PID.TID 0000.0001) PTRACERS_diffKrNr = /* Vertical Diffusivity */
(PID.TID 0000.0001)    23 @  1.000000000000000E-05              /* K =  1: 23 */
(PID.TID 0000.0001)     ;
(PID.TID 0000.0001) PTRACERS_useGMRedi = /* apply GM-Redi */
(PID.TID 0000.0001)                   T
(PID.TID 0000.0001)     ;
(PID.TID 0000.0001) PTRACERS_useDWNSLP = /* apply DOWN-SLOPE Flow */
(PID.TID 0000.0001)                   F
(PID.TID 0000.0001)     ;
(PID.TID 0000.0001) PTRACERS_useKPP = /* apply KPP scheme */
(PID.TID 0000.0001)                   T
(PID.TID 0000.0001)     ;
(PID.TID 0000.0001) PTRACERS_ref = /* Reference vertical profile */
(PID.TID 0000.0001)    23 @  0.000000000000000E+00              /* K =  1: 23 */
(PID.TID 0000.0001)     ;
(PID.TID 0000.0001) PTRACERS_EvPrRn =/* tracer conc. in Evap. & Rain */
(PID.TID 0000.0001)                 1.234567000000000E+05
(PID.TID 0000.0001)     ;
(PID.TID 0000.0001)  -----------------------------------
(PID.TID 0000.0001)  tracer number :   55
(PID.TID 0000.0001) PTRACERS_names = /* Tracer short name */
(PID.TID 0000.0001)               'c36'
(PID.TID 0000.0001)     ;
(PID.TID 0000.0001) PTRACERS_long_names = /* Tracer long name */
(PID.TID 0000.0001)               ''
(PID.TID 0000.0001)     ;
(PID.TID 0000.0001) PTRACERS_ioLabel = /* tracer IO Label */
(PID.TID 0000.0001)               '55'
(PID.TID 0000.0001)     ;
(PID.TID 0000.0001) PTRACERS_advScheme = /* Advection Scheme */
(PID.TID 0000.0001)                      33
(PID.TID 0000.0001)     ;
(PID.TID 0000.0001) PTRACERS_SOM_Advection = /* tracer uses SOM advection scheme */
(PID.TID 0000.0001)                   F
(PID.TID 0000.0001)     ;
(PID.TID 0000.0001) PTRACERS_ImplVertAdv = /* implicit vert. advection flag */
(PID.TID 0000.0001)                   F
(PID.TID 0000.0001)     ;
(PID.TID 0000.0001) PTRACERS_diffKh = /* Laplacian Diffusivity */
(PID.TID 0000.0001)                 0.000000000000000E+00
(PID.TID 0000.0001)     ;
(PID.TID 0000.0001) PTRACERS_diffK4 = /* Biharmonic Diffusivity */
(PID.TID 0000.0001)                 0.000000000000000E+00
(PID.TID 0000.0001)     ;
(PID.TID 0000.0001) PTRACERS_diffKrNr = /* Vertical Diffusivity */
(PID.TID 0000.0001)    23 @  1.000000000000000E-05              /* K =  1: 23 */
(PID.TID 0000.0001)     ;
(PID.TID 0000.0001) PTRACERS_useGMRedi = /* apply GM-Redi */
(PID.TID 0000.0001)                   T
(PID.TID 0000.0001)     ;
(PID.TID 0000.0001) PTRACERS_useDWNSLP = /* apply DOWN-SLOPE Flow */
(PID.TID 0000.0001)                   F
(PID.TID 0000.0001)     ;
(PID.TID 0000.0001) PTRACERS_useKPP = /* apply KPP scheme */
(PID.TID 0000.0001)                   T
(PID.TID 0000.0001)     ;
(PID.TID 0000.0001) PTRACERS_ref = /* Reference vertical profile */
(PID.TID 0000.0001)    23 @  0.000000000000000E+00              /* K =  1: 23 */
(PID.TID 0000.0001)     ;
(PID.TID 0000.0001) PTRACERS_EvPrRn =/* tracer conc. in Evap. & Rain */
(PID.TID 0000.0001)                 1.234567000000000E+05
(PID.TID 0000.0001)     ;
(PID.TID 0000.0001)  -----------------------------------
(PID.TID 0000.0001)  tracer number :   56
(PID.TID 0000.0001) PTRACERS_names = /* Tracer short name */
(PID.TID 0000.0001)               'c37'
(PID.TID 0000.0001)     ;
(PID.TID 0000.0001) PTRACERS_long_names = /* Tracer long name */
(PID.TID 0000.0001)               ''
(PID.TID 0000.0001)     ;
(PID.TID 0000.0001) PTRACERS_ioLabel = /* tracer IO Label */
(PID.TID 0000.0001)               '56'
(PID.TID 0000.0001)     ;
(PID.TID 0000.0001) PTRACERS_advScheme = /* Advection Scheme */
(PID.TID 0000.0001)                      33
(PID.TID 0000.0001)     ;
(PID.TID 0000.0001) PTRACERS_SOM_Advection = /* tracer uses SOM advection scheme */
(PID.TID 0000.0001)                   F
(PID.TID 0000.0001)     ;
(PID.TID 0000.0001) PTRACERS_ImplVertAdv = /* implicit vert. advection flag */
(PID.TID 0000.0001)                   F
(PID.TID 0000.0001)     ;
(PID.TID 0000.0001) PTRACERS_diffKh = /* Laplacian Diffusivity */
(PID.TID 0000.0001)                 0.000000000000000E+00
(PID.TID 0000.0001)     ;
(PID.TID 0000.0001) PTRACERS_diffK4 = /* Biharmonic Diffusivity */
(PID.TID 0000.0001)                 0.000000000000000E+00
(PID.TID 0000.0001)     ;
(PID.TID 0000.0001) PTRACERS_diffKrNr = /* Vertical Diffusivity */
(PID.TID 0000.0001)    23 @  1.000000000000000E-05              /* K =  1: 23 */
(PID.TID 0000.0001)     ;
(PID.TID 0000.0001) PTRACERS_useGMRedi = /* apply GM-Redi */
(PID.TID 0000.0001)                   T
(PID.TID 0000.0001)     ;
(PID.TID 0000.0001) PTRACERS_useDWNSLP = /* apply DOWN-SLOPE Flow */
(PID.TID 0000.0001)                   F
(PID.TID 0000.0001)     ;
(PID.TID 0000.0001) PTRACERS_useKPP = /* apply KPP scheme */
(PID.TID 0000.0001)                   T
(PID.TID 0000.0001)     ;
(PID.TID 0000.0001) PTRACERS_ref = /* Reference vertical profile */
(PID.TID 0000.0001)    23 @  0.000000000000000E+00              /* K =  1: 23 */
(PID.TID 0000.0001)     ;
(PID.TID 0000.0001) PTRACERS_EvPrRn =/* tracer conc. in Evap. & Rain */
(PID.TID 0000.0001)                 1.234567000000000E+05
(PID.TID 0000.0001)     ;
(PID.TID 0000.0001)  -----------------------------------
(PID.TID 0000.0001)  tracer number :   57
(PID.TID 0000.0001) PTRACERS_names = /* Tracer short name */
(PID.TID 0000.0001)               'c38'
(PID.TID 0000.0001)     ;
(PID.TID 0000.0001) PTRACERS_long_names = /* Tracer long name */
(PID.TID 0000.0001)               ''
(PID.TID 0000.0001)     ;
(PID.TID 0000.0001) PTRACERS_ioLabel = /* tracer IO Label */
(PID.TID 0000.0001)               '57'
(PID.TID 0000.0001)     ;
(PID.TID 0000.0001) PTRACERS_advScheme = /* Advection Scheme */
(PID.TID 0000.0001)                      33
(PID.TID 0000.0001)     ;
(PID.TID 0000.0001) PTRACERS_SOM_Advection = /* tracer uses SOM advection scheme */
(PID.TID 0000.0001)                   F
(PID.TID 0000.0001)     ;
(PID.TID 0000.0001) PTRACERS_ImplVertAdv = /* implicit vert. advection flag */
(PID.TID 0000.0001)                   F
(PID.TID 0000.0001)     ;
(PID.TID 0000.0001) PTRACERS_diffKh = /* Laplacian Diffusivity */
(PID.TID 0000.0001)                 0.000000000000000E+00
(PID.TID 0000.0001)     ;
(PID.TID 0000.0001) PTRACERS_diffK4 = /* Biharmonic Diffusivity */
(PID.TID 0000.0001)                 0.000000000000000E+00
(PID.TID 0000.0001)     ;
(PID.TID 0000.0001) PTRACERS_diffKrNr = /* Vertical Diffusivity */
(PID.TID 0000.0001)    23 @  1.000000000000000E-05              /* K =  1: 23 */
(PID.TID 0000.0001)     ;
(PID.TID 0000.0001) PTRACERS_useGMRedi = /* apply GM-Redi */
(PID.TID 0000.0001)                   T
(PID.TID 0000.0001)     ;
(PID.TID 0000.0001) PTRACERS_useDWNSLP = /* apply DOWN-SLOPE Flow */
(PID.TID 0000.0001)                   F
(PID.TID 0000.0001)     ;
(PID.TID 0000.0001) PTRACERS_useKPP = /* apply KPP scheme */
(PID.TID 0000.0001)                   T
(PID.TID 0000.0001)     ;
(PID.TID 0000.0001) PTRACERS_ref = /* Reference vertical profile */
(PID.TID 0000.0001)    23 @  0.000000000000000E+00              /* K =  1: 23 */
(PID.TID 0000.0001)     ;
(PID.TID 0000.0001) PTRACERS_EvPrRn =/* tracer conc. in Evap. & Rain */
(PID.TID 0000.0001)                 1.234567000000000E+05
(PID.TID 0000.0001)     ;
(PID.TID 0000.0001)  -----------------------------------
(PID.TID 0000.0001)  tracer number :   58
(PID.TID 0000.0001) PTRACERS_names = /* Tracer short name */
(PID.TID 0000.0001)               'Chl01'
(PID.TID 0000.0001)     ;
(PID.TID 0000.0001) PTRACERS_long_names = /* Tracer long name */
(PID.TID 0000.0001)               ''
(PID.TID 0000.0001)     ;
(PID.TID 0000.0001) PTRACERS_ioLabel = /* tracer IO Label */
(PID.TID 0000.0001)               '58'
(PID.TID 0000.0001)     ;
(PID.TID 0000.0001) PTRACERS_advScheme = /* Advection Scheme */
(PID.TID 0000.0001)                      33
(PID.TID 0000.0001)     ;
(PID.TID 0000.0001) PTRACERS_SOM_Advection = /* tracer uses SOM advection scheme */
(PID.TID 0000.0001)                   F
(PID.TID 0000.0001)     ;
(PID.TID 0000.0001) PTRACERS_ImplVertAdv = /* implicit vert. advection flag */
(PID.TID 0000.0001)                   F
(PID.TID 0000.0001)     ;
(PID.TID 0000.0001) PTRACERS_diffKh = /* Laplacian Diffusivity */
(PID.TID 0000.0001)                 0.000000000000000E+00
(PID.TID 0000.0001)     ;
(PID.TID 0000.0001) PTRACERS_diffK4 = /* Biharmonic Diffusivity */
(PID.TID 0000.0001)                 0.000000000000000E+00
(PID.TID 0000.0001)     ;
(PID.TID 0000.0001) PTRACERS_diffKrNr = /* Vertical Diffusivity */
(PID.TID 0000.0001)    23 @  1.000000000000000E-05              /* K =  1: 23 */
(PID.TID 0000.0001)     ;
(PID.TID 0000.0001) PTRACERS_useGMRedi = /* apply GM-Redi */
(PID.TID 0000.0001)                   T
(PID.TID 0000.0001)     ;
(PID.TID 0000.0001) PTRACERS_useDWNSLP = /* apply DOWN-SLOPE Flow */
(PID.TID 0000.0001)                   F
(PID.TID 0000.0001)     ;
(PID.TID 0000.0001) PTRACERS_useKPP = /* apply KPP scheme */
(PID.TID 0000.0001)                   T
(PID.TID 0000.0001)     ;
(PID.TID 0000.0001) PTRACERS_ref = /* Reference vertical profile */
(PID.TID 0000.0001)    23 @  0.000000000000000E+00              /* K =  1: 23 */
(PID.TID 0000.0001)     ;
(PID.TID 0000.0001) PTRACERS_EvPrRn =/* tracer conc. in Evap. & Rain */
(PID.TID 0000.0001)                 1.234567000000000E+05
(PID.TID 0000.0001)     ;
(PID.TID 0000.0001)  -----------------------------------
(PID.TID 0000.0001)  tracer number :   59
(PID.TID 0000.0001) PTRACERS_names = /* Tracer short name */
(PID.TID 0000.0001)               'Chl02'
(PID.TID 0000.0001)     ;
(PID.TID 0000.0001) PTRACERS_long_names = /* Tracer long name */
(PID.TID 0000.0001)               ''
(PID.TID 0000.0001)     ;
(PID.TID 0000.0001) PTRACERS_ioLabel = /* tracer IO Label */
(PID.TID 0000.0001)               '59'
(PID.TID 0000.0001)     ;
(PID.TID 0000.0001) PTRACERS_advScheme = /* Advection Scheme */
(PID.TID 0000.0001)                      33
(PID.TID 0000.0001)     ;
(PID.TID 0000.0001) PTRACERS_SOM_Advection = /* tracer uses SOM advection scheme */
(PID.TID 0000.0001)                   F
(PID.TID 0000.0001)     ;
(PID.TID 0000.0001) PTRACERS_ImplVertAdv = /* implicit vert. advection flag */
(PID.TID 0000.0001)                   F
(PID.TID 0000.0001)     ;
(PID.TID 0000.0001) PTRACERS_diffKh = /* Laplacian Diffusivity */
(PID.TID 0000.0001)                 0.000000000000000E+00
(PID.TID 0000.0001)     ;
(PID.TID 0000.0001) PTRACERS_diffK4 = /* Biharmonic Diffusivity */
(PID.TID 0000.0001)                 0.000000000000000E+00
(PID.TID 0000.0001)     ;
(PID.TID 0000.0001) PTRACERS_diffKrNr = /* Vertical Diffusivity */
(PID.TID 0000.0001)    23 @  1.000000000000000E-05              /* K =  1: 23 */
(PID.TID 0000.0001)     ;
(PID.TID 0000.0001) PTRACERS_useGMRedi = /* apply GM-Redi */
(PID.TID 0000.0001)                   T
(PID.TID 0000.0001)     ;
(PID.TID 0000.0001) PTRACERS_useDWNSLP = /* apply DOWN-SLOPE Flow */
(PID.TID 0000.0001)                   F
(PID.TID 0000.0001)     ;
(PID.TID 0000.0001) PTRACERS_useKPP = /* apply KPP scheme */
(PID.TID 0000.0001)                   T
(PID.TID 0000.0001)     ;
(PID.TID 0000.0001) PTRACERS_ref = /* Reference vertical profile */
(PID.TID 0000.0001)    23 @  0.000000000000000E+00              /* K =  1: 23 */
(PID.TID 0000.0001)     ;
(PID.TID 0000.0001) PTRACERS_EvPrRn =/* tracer conc. in Evap. & Rain */
(PID.TID 0000.0001)                 1.234567000000000E+05
(PID.TID 0000.0001)     ;
(PID.TID 0000.0001)  -----------------------------------
(PID.TID 0000.0001)  tracer number :   60
(PID.TID 0000.0001) PTRACERS_names = /* Tracer short name */
(PID.TID 0000.0001)               'Chl03'
(PID.TID 0000.0001)     ;
(PID.TID 0000.0001) PTRACERS_long_names = /* Tracer long name */
(PID.TID 0000.0001)               ''
(PID.TID 0000.0001)     ;
(PID.TID 0000.0001) PTRACERS_ioLabel = /* tracer IO Label */
(PID.TID 0000.0001)               '60'
(PID.TID 0000.0001)     ;
(PID.TID 0000.0001) PTRACERS_advScheme = /* Advection Scheme */
(PID.TID 0000.0001)                      33
(PID.TID 0000.0001)     ;
(PID.TID 0000.0001) PTRACERS_SOM_Advection = /* tracer uses SOM advection scheme */
(PID.TID 0000.0001)                   F
(PID.TID 0000.0001)     ;
(PID.TID 0000.0001) PTRACERS_ImplVertAdv = /* implicit vert. advection flag */
(PID.TID 0000.0001)                   F
(PID.TID 0000.0001)     ;
(PID.TID 0000.0001) PTRACERS_diffKh = /* Laplacian Diffusivity */
(PID.TID 0000.0001)                 0.000000000000000E+00
(PID.TID 0000.0001)     ;
(PID.TID 0000.0001) PTRACERS_diffK4 = /* Biharmonic Diffusivity */
(PID.TID 0000.0001)                 0.000000000000000E+00
(PID.TID 0000.0001)     ;
(PID.TID 0000.0001) PTRACERS_diffKrNr = /* Vertical Diffusivity */
(PID.TID 0000.0001)    23 @  1.000000000000000E-05              /* K =  1: 23 */
(PID.TID 0000.0001)     ;
(PID.TID 0000.0001) PTRACERS_useGMRedi = /* apply GM-Redi */
(PID.TID 0000.0001)                   T
(PID.TID 0000.0001)     ;
(PID.TID 0000.0001) PTRACERS_useDWNSLP = /* apply DOWN-SLOPE Flow */
(PID.TID 0000.0001)                   F
(PID.TID 0000.0001)     ;
(PID.TID 0000.0001) PTRACERS_useKPP = /* apply KPP scheme */
(PID.TID 0000.0001)                   T
(PID.TID 0000.0001)     ;
(PID.TID 0000.0001) PTRACERS_ref = /* Reference vertical profile */
(PID.TID 0000.0001)    23 @  0.000000000000000E+00              /* K =  1: 23 */
(PID.TID 0000.0001)     ;
(PID.TID 0000.0001) PTRACERS_EvPrRn =/* tracer conc. in Evap. & Rain */
(PID.TID 0000.0001)                 1.234567000000000E+05
(PID.TID 0000.0001)     ;
(PID.TID 0000.0001)  -----------------------------------
(PID.TID 0000.0001)  tracer number :   61
(PID.TID 0000.0001) PTRACERS_names = /* Tracer short name */
(PID.TID 0000.0001)               'Chl04'
(PID.TID 0000.0001)     ;
(PID.TID 0000.0001) PTRACERS_long_names = /* Tracer long name */
(PID.TID 0000.0001)               ''
(PID.TID 0000.0001)     ;
(PID.TID 0000.0001) PTRACERS_ioLabel = /* tracer IO Label */
(PID.TID 0000.0001)               '61'
(PID.TID 0000.0001)     ;
(PID.TID 0000.0001) PTRACERS_advScheme = /* Advection Scheme */
(PID.TID 0000.0001)                      33
(PID.TID 0000.0001)     ;
(PID.TID 0000.0001) PTRACERS_SOM_Advection = /* tracer uses SOM advection scheme */
(PID.TID 0000.0001)                   F
(PID.TID 0000.0001)     ;
(PID.TID 0000.0001) PTRACERS_ImplVertAdv = /* implicit vert. advection flag */
(PID.TID 0000.0001)                   F
(PID.TID 0000.0001)     ;
(PID.TID 0000.0001) PTRACERS_diffKh = /* Laplacian Diffusivity */
(PID.TID 0000.0001)                 0.000000000000000E+00
(PID.TID 0000.0001)     ;
(PID.TID 0000.0001) PTRACERS_diffK4 = /* Biharmonic Diffusivity */
(PID.TID 0000.0001)                 0.000000000000000E+00
(PID.TID 0000.0001)     ;
(PID.TID 0000.0001) PTRACERS_diffKrNr = /* Vertical Diffusivity */
(PID.TID 0000.0001)    23 @  1.000000000000000E-05              /* K =  1: 23 */
(PID.TID 0000.0001)     ;
(PID.TID 0000.0001) PTRACERS_useGMRedi = /* apply GM-Redi */
(PID.TID 0000.0001)                   T
(PID.TID 0000.0001)     ;
(PID.TID 0000.0001) PTRACERS_useDWNSLP = /* apply DOWN-SLOPE Flow */
(PID.TID 0000.0001)                   F
(PID.TID 0000.0001)     ;
(PID.TID 0000.0001) PTRACERS_useKPP = /* apply KPP scheme */
(PID.TID 0000.0001)                   T
(PID.TID 0000.0001)     ;
(PID.TID 0000.0001) PTRACERS_ref = /* Reference vertical profile */
(PID.TID 0000.0001)    23 @  0.000000000000000E+00              /* K =  1: 23 */
(PID.TID 0000.0001)     ;
(PID.TID 0000.0001) PTRACERS_EvPrRn =/* tracer conc. in Evap. & Rain */
(PID.TID 0000.0001)                 1.234567000000000E+05
(PID.TID 0000.0001)     ;
(PID.TID 0000.0001)  -----------------------------------
(PID.TID 0000.0001)  tracer number :   62
(PID.TID 0000.0001) PTRACERS_names = /* Tracer short name */
(PID.TID 0000.0001)               'Chl05'
(PID.TID 0000.0001)     ;
(PID.TID 0000.0001) PTRACERS_long_names = /* Tracer long name */
(PID.TID 0000.0001)               ''
(PID.TID 0000.0001)     ;
(PID.TID 0000.0001) PTRACERS_ioLabel = /* tracer IO Label */
(PID.TID 0000.0001)               '62'
(PID.TID 0000.0001)     ;
(PID.TID 0000.0001) PTRACERS_advScheme = /* Advection Scheme */
(PID.TID 0000.0001)                      33
(PID.TID 0000.0001)     ;
(PID.TID 0000.0001) PTRACERS_SOM_Advection = /* tracer uses SOM advection scheme */
(PID.TID 0000.0001)                   F
(PID.TID 0000.0001)     ;
(PID.TID 0000.0001) PTRACERS_ImplVertAdv = /* implicit vert. advection flag */
(PID.TID 0000.0001)                   F
(PID.TID 0000.0001)     ;
(PID.TID 0000.0001) PTRACERS_diffKh = /* Laplacian Diffusivity */
(PID.TID 0000.0001)                 0.000000000000000E+00
(PID.TID 0000.0001)     ;
(PID.TID 0000.0001) PTRACERS_diffK4 = /* Biharmonic Diffusivity */
(PID.TID 0000.0001)                 0.000000000000000E+00
(PID.TID 0000.0001)     ;
(PID.TID 0000.0001) PTRACERS_diffKrNr = /* Vertical Diffusivity */
(PID.TID 0000.0001)    23 @  1.000000000000000E-05              /* K =  1: 23 */
(PID.TID 0000.0001)     ;
(PID.TID 0000.0001) PTRACERS_useGMRedi = /* apply GM-Redi */
(PID.TID 0000.0001)                   T
(PID.TID 0000.0001)     ;
(PID.TID 0000.0001) PTRACERS_useDWNSLP = /* apply DOWN-SLOPE Flow */
(PID.TID 0000.0001)                   F
(PID.TID 0000.0001)     ;
(PID.TID 0000.0001) PTRACERS_useKPP = /* apply KPP scheme */
(PID.TID 0000.0001)                   T
(PID.TID 0000.0001)     ;
(PID.TID 0000.0001) PTRACERS_ref = /* Reference vertical profile */
(PID.TID 0000.0001)    23 @  0.000000000000000E+00              /* K =  1: 23 */
(PID.TID 0000.0001)     ;
(PID.TID 0000.0001) PTRACERS_EvPrRn =/* tracer conc. in Evap. & Rain */
(PID.TID 0000.0001)                 1.234567000000000E+05
(PID.TID 0000.0001)     ;
(PID.TID 0000.0001)  -----------------------------------
(PID.TID 0000.0001)  tracer number :   63
(PID.TID 0000.0001) PTRACERS_names = /* Tracer short name */
(PID.TID 0000.0001)               'Chl06'
(PID.TID 0000.0001)     ;
(PID.TID 0000.0001) PTRACERS_long_names = /* Tracer long name */
(PID.TID 0000.0001)               ''
(PID.TID 0000.0001)     ;
(PID.TID 0000.0001) PTRACERS_ioLabel = /* tracer IO Label */
(PID.TID 0000.0001)               '63'
(PID.TID 0000.0001)     ;
(PID.TID 0000.0001) PTRACERS_advScheme = /* Advection Scheme */
(PID.TID 0000.0001)                      33
(PID.TID 0000.0001)     ;
(PID.TID 0000.0001) PTRACERS_SOM_Advection = /* tracer uses SOM advection scheme */
(PID.TID 0000.0001)                   F
(PID.TID 0000.0001)     ;
(PID.TID 0000.0001) PTRACERS_ImplVertAdv = /* implicit vert. advection flag */
(PID.TID 0000.0001)                   F
(PID.TID 0000.0001)     ;
(PID.TID 0000.0001) PTRACERS_diffKh = /* Laplacian Diffusivity */
(PID.TID 0000.0001)                 0.000000000000000E+00
(PID.TID 0000.0001)     ;
(PID.TID 0000.0001) PTRACERS_diffK4 = /* Biharmonic Diffusivity */
(PID.TID 0000.0001)                 0.000000000000000E+00
(PID.TID 0000.0001)     ;
(PID.TID 0000.0001) PTRACERS_diffKrNr = /* Vertical Diffusivity */
(PID.TID 0000.0001)    23 @  1.000000000000000E-05              /* K =  1: 23 */
(PID.TID 0000.0001)     ;
(PID.TID 0000.0001) PTRACERS_useGMRedi = /* apply GM-Redi */
(PID.TID 0000.0001)                   T
(PID.TID 0000.0001)     ;
(PID.TID 0000.0001) PTRACERS_useDWNSLP = /* apply DOWN-SLOPE Flow */
(PID.TID 0000.0001)                   F
(PID.TID 0000.0001)     ;
(PID.TID 0000.0001) PTRACERS_useKPP = /* apply KPP scheme */
(PID.TID 0000.0001)                   T
(PID.TID 0000.0001)     ;
(PID.TID 0000.0001) PTRACERS_ref = /* Reference vertical profile */
(PID.TID 0000.0001)    23 @  0.000000000000000E+00              /* K =  1: 23 */
(PID.TID 0000.0001)     ;
(PID.TID 0000.0001) PTRACERS_EvPrRn =/* tracer conc. in Evap. & Rain */
(PID.TID 0000.0001)                 1.234567000000000E+05
(PID.TID 0000.0001)     ;
(PID.TID 0000.0001)  -----------------------------------
(PID.TID 0000.0001)  tracer number :   64
(PID.TID 0000.0001) PTRACERS_names = /* Tracer short name */
(PID.TID 0000.0001)               'Chl07'
(PID.TID 0000.0001)     ;
(PID.TID 0000.0001) PTRACERS_long_names = /* Tracer long name */
(PID.TID 0000.0001)               ''
(PID.TID 0000.0001)     ;
(PID.TID 0000.0001) PTRACERS_ioLabel = /* tracer IO Label */
(PID.TID 0000.0001)               '64'
(PID.TID 0000.0001)     ;
(PID.TID 0000.0001) PTRACERS_advScheme = /* Advection Scheme */
(PID.TID 0000.0001)                      33
(PID.TID 0000.0001)     ;
(PID.TID 0000.0001) PTRACERS_SOM_Advection = /* tracer uses SOM advection scheme */
(PID.TID 0000.0001)                   F
(PID.TID 0000.0001)     ;
(PID.TID 0000.0001) PTRACERS_ImplVertAdv = /* implicit vert. advection flag */
(PID.TID 0000.0001)                   F
(PID.TID 0000.0001)     ;
(PID.TID 0000.0001) PTRACERS_diffKh = /* Laplacian Diffusivity */
(PID.TID 0000.0001)                 0.000000000000000E+00
(PID.TID 0000.0001)     ;
(PID.TID 0000.0001) PTRACERS_diffK4 = /* Biharmonic Diffusivity */
(PID.TID 0000.0001)                 0.000000000000000E+00
(PID.TID 0000.0001)     ;
(PID.TID 0000.0001) PTRACERS_diffKrNr = /* Vertical Diffusivity */
(PID.TID 0000.0001)    23 @  1.000000000000000E-05              /* K =  1: 23 */
(PID.TID 0000.0001)     ;
(PID.TID 0000.0001) PTRACERS_useGMRedi = /* apply GM-Redi */
(PID.TID 0000.0001)                   T
(PID.TID 0000.0001)     ;
(PID.TID 0000.0001) PTRACERS_useDWNSLP = /* apply DOWN-SLOPE Flow */
(PID.TID 0000.0001)                   F
(PID.TID 0000.0001)     ;
(PID.TID 0000.0001) PTRACERS_useKPP = /* apply KPP scheme */
(PID.TID 0000.0001)                   T
(PID.TID 0000.0001)     ;
(PID.TID 0000.0001) PTRACERS_ref = /* Reference vertical profile */
(PID.TID 0000.0001)    23 @  0.000000000000000E+00              /* K =  1: 23 */
(PID.TID 0000.0001)     ;
(PID.TID 0000.0001) PTRACERS_EvPrRn =/* tracer conc. in Evap. & Rain */
(PID.TID 0000.0001)                 1.234567000000000E+05
(PID.TID 0000.0001)     ;
(PID.TID 0000.0001)  -----------------------------------
(PID.TID 0000.0001)  tracer number :   65
(PID.TID 0000.0001) PTRACERS_names = /* Tracer short name */
(PID.TID 0000.0001)               'Chl08'
(PID.TID 0000.0001)     ;
(PID.TID 0000.0001) PTRACERS_long_names = /* Tracer long name */
(PID.TID 0000.0001)               ''
(PID.TID 0000.0001)     ;
(PID.TID 0000.0001) PTRACERS_ioLabel = /* tracer IO Label */
(PID.TID 0000.0001)               '65'
(PID.TID 0000.0001)     ;
(PID.TID 0000.0001) PTRACERS_advScheme = /* Advection Scheme */
(PID.TID 0000.0001)                      33
(PID.TID 0000.0001)     ;
(PID.TID 0000.0001) PTRACERS_SOM_Advection = /* tracer uses SOM advection scheme */
(PID.TID 0000.0001)                   F
(PID.TID 0000.0001)     ;
(PID.TID 0000.0001) PTRACERS_ImplVertAdv = /* implicit vert. advection flag */
(PID.TID 0000.0001)                   F
(PID.TID 0000.0001)     ;
(PID.TID 0000.0001) PTRACERS_diffKh = /* Laplacian Diffusivity */
(PID.TID 0000.0001)                 0.000000000000000E+00
(PID.TID 0000.0001)     ;
(PID.TID 0000.0001) PTRACERS_diffK4 = /* Biharmonic Diffusivity */
(PID.TID 0000.0001)                 0.000000000000000E+00
(PID.TID 0000.0001)     ;
(PID.TID 0000.0001) PTRACERS_diffKrNr = /* Vertical Diffusivity */
(PID.TID 0000.0001)    23 @  1.000000000000000E-05              /* K =  1: 23 */
(PID.TID 0000.0001)     ;
(PID.TID 0000.0001) PTRACERS_useGMRedi = /* apply GM-Redi */
(PID.TID 0000.0001)                   T
(PID.TID 0000.0001)     ;
(PID.TID 0000.0001) PTRACERS_useDWNSLP = /* apply DOWN-SLOPE Flow */
(PID.TID 0000.0001)                   F
(PID.TID 0000.0001)     ;
(PID.TID 0000.0001) PTRACERS_useKPP = /* apply KPP scheme */
(PID.TID 0000.0001)                   T
(PID.TID 0000.0001)     ;
(PID.TID 0000.0001) PTRACERS_ref = /* Reference vertical profile */
(PID.TID 0000.0001)    23 @  0.000000000000000E+00              /* K =  1: 23 */
(PID.TID 0000.0001)     ;
(PID.TID 0000.0001) PTRACERS_EvPrRn =/* tracer conc. in Evap. & Rain */
(PID.TID 0000.0001)                 1.234567000000000E+05
(PID.TID 0000.0001)     ;
(PID.TID 0000.0001)  -----------------------------------
(PID.TID 0000.0001)  tracer number :   66
(PID.TID 0000.0001) PTRACERS_names = /* Tracer short name */
(PID.TID 0000.0001)               'Chl09'
(PID.TID 0000.0001)     ;
(PID.TID 0000.0001) PTRACERS_long_names = /* Tracer long name */
(PID.TID 0000.0001)               ''
(PID.TID 0000.0001)     ;
(PID.TID 0000.0001) PTRACERS_ioLabel = /* tracer IO Label */
(PID.TID 0000.0001)               '66'
(PID.TID 0000.0001)     ;
(PID.TID 0000.0001) PTRACERS_advScheme = /* Advection Scheme */
(PID.TID 0000.0001)                      33
(PID.TID 0000.0001)     ;
(PID.TID 0000.0001) PTRACERS_SOM_Advection = /* tracer uses SOM advection scheme */
(PID.TID 0000.0001)                   F
(PID.TID 0000.0001)     ;
(PID.TID 0000.0001) PTRACERS_ImplVertAdv = /* implicit vert. advection flag */
(PID.TID 0000.0001)                   F
(PID.TID 0000.0001)     ;
(PID.TID 0000.0001) PTRACERS_diffKh = /* Laplacian Diffusivity */
(PID.TID 0000.0001)                 0.000000000000000E+00
(PID.TID 0000.0001)     ;
(PID.TID 0000.0001) PTRACERS_diffK4 = /* Biharmonic Diffusivity */
(PID.TID 0000.0001)                 0.000000000000000E+00
(PID.TID 0000.0001)     ;
(PID.TID 0000.0001) PTRACERS_diffKrNr = /* Vertical Diffusivity */
(PID.TID 0000.0001)    23 @  1.000000000000000E-05              /* K =  1: 23 */
(PID.TID 0000.0001)     ;
(PID.TID 0000.0001) PTRACERS_useGMRedi = /* apply GM-Redi */
(PID.TID 0000.0001)                   T
(PID.TID 0000.0001)     ;
(PID.TID 0000.0001) PTRACERS_useDWNSLP = /* apply DOWN-SLOPE Flow */
(PID.TID 0000.0001)                   F
(PID.TID 0000.0001)     ;
(PID.TID 0000.0001) PTRACERS_useKPP = /* apply KPP scheme */
(PID.TID 0000.0001)                   T
(PID.TID 0000.0001)     ;
(PID.TID 0000.0001) PTRACERS_ref = /* Reference vertical profile */
(PID.TID 0000.0001)    23 @  0.000000000000000E+00              /* K =  1: 23 */
(PID.TID 0000.0001)     ;
(PID.TID 0000.0001) PTRACERS_EvPrRn =/* tracer conc. in Evap. & Rain */
(PID.TID 0000.0001)                 1.234567000000000E+05
(PID.TID 0000.0001)     ;
(PID.TID 0000.0001)  -----------------------------------
(PID.TID 0000.0001)  tracer number :   67
(PID.TID 0000.0001) PTRACERS_names = /* Tracer short name */
(PID.TID 0000.0001)               'Chl10'
(PID.TID 0000.0001)     ;
(PID.TID 0000.0001) PTRACERS_long_names = /* Tracer long name */
(PID.TID 0000.0001)               ''
(PID.TID 0000.0001)     ;
(PID.TID 0000.0001) PTRACERS_ioLabel = /* tracer IO Label */
(PID.TID 0000.0001)               '67'
(PID.TID 0000.0001)     ;
(PID.TID 0000.0001) PTRACERS_advScheme = /* Advection Scheme */
(PID.TID 0000.0001)                      33
(PID.TID 0000.0001)     ;
(PID.TID 0000.0001) PTRACERS_SOM_Advection = /* tracer uses SOM advection scheme */
(PID.TID 0000.0001)                   F
(PID.TID 0000.0001)     ;
(PID.TID 0000.0001) PTRACERS_ImplVertAdv = /* implicit vert. advection flag */
(PID.TID 0000.0001)                   F
(PID.TID 0000.0001)     ;
(PID.TID 0000.0001) PTRACERS_diffKh = /* Laplacian Diffusivity */
(PID.TID 0000.0001)                 0.000000000000000E+00
(PID.TID 0000.0001)     ;
(PID.TID 0000.0001) PTRACERS_diffK4 = /* Biharmonic Diffusivity */
(PID.TID 0000.0001)                 0.000000000000000E+00
(PID.TID 0000.0001)     ;
(PID.TID 0000.0001) PTRACERS_diffKrNr = /* Vertical Diffusivity */
(PID.TID 0000.0001)    23 @  1.000000000000000E-05              /* K =  1: 23 */
(PID.TID 0000.0001)     ;
(PID.TID 0000.0001) PTRACERS_useGMRedi = /* apply GM-Redi */
(PID.TID 0000.0001)                   T
(PID.TID 0000.0001)     ;
(PID.TID 0000.0001) PTRACERS_useDWNSLP = /* apply DOWN-SLOPE Flow */
(PID.TID 0000.0001)                   F
(PID.TID 0000.0001)     ;
(PID.TID 0000.0001) PTRACERS_useKPP = /* apply KPP scheme */
(PID.TID 0000.0001)                   T
(PID.TID 0000.0001)     ;
(PID.TID 0000.0001) PTRACERS_ref = /* Reference vertical profile */
(PID.TID 0000.0001)    23 @  0.000000000000000E+00              /* K =  1: 23 */
(PID.TID 0000.0001)     ;
(PID.TID 0000.0001) PTRACERS_EvPrRn =/* tracer conc. in Evap. & Rain */
(PID.TID 0000.0001)                 1.234567000000000E+05
(PID.TID 0000.0001)     ;
(PID.TID 0000.0001)  -----------------------------------
(PID.TID 0000.0001)  tracer number :   68
(PID.TID 0000.0001) PTRACERS_names = /* Tracer short name */
(PID.TID 0000.0001)               'Chl11'
(PID.TID 0000.0001)     ;
(PID.TID 0000.0001) PTRACERS_long_names = /* Tracer long name */
(PID.TID 0000.0001)               ''
(PID.TID 0000.0001)     ;
(PID.TID 0000.0001) PTRACERS_ioLabel = /* tracer IO Label */
(PID.TID 0000.0001)               '68'
(PID.TID 0000.0001)     ;
(PID.TID 0000.0001) PTRACERS_advScheme = /* Advection Scheme */
(PID.TID 0000.0001)                      33
(PID.TID 0000.0001)     ;
(PID.TID 0000.0001) PTRACERS_SOM_Advection = /* tracer uses SOM advection scheme */
(PID.TID 0000.0001)                   F
(PID.TID 0000.0001)     ;
(PID.TID 0000.0001) PTRACERS_ImplVertAdv = /* implicit vert. advection flag */
(PID.TID 0000.0001)                   F
(PID.TID 0000.0001)     ;
(PID.TID 0000.0001) PTRACERS_diffKh = /* Laplacian Diffusivity */
(PID.TID 0000.0001)                 0.000000000000000E+00
(PID.TID 0000.0001)     ;
(PID.TID 0000.0001) PTRACERS_diffK4 = /* Biharmonic Diffusivity */
(PID.TID 0000.0001)                 0.000000000000000E+00
(PID.TID 0000.0001)     ;
(PID.TID 0000.0001) PTRACERS_diffKrNr = /* Vertical Diffusivity */
(PID.TID 0000.0001)    23 @  1.000000000000000E-05              /* K =  1: 23 */
(PID.TID 0000.0001)     ;
(PID.TID 0000.0001) PTRACERS_useGMRedi = /* apply GM-Redi */
(PID.TID 0000.0001)                   T
(PID.TID 0000.0001)     ;
(PID.TID 0000.0001) PTRACERS_useDWNSLP = /* apply DOWN-SLOPE Flow */
(PID.TID 0000.0001)                   F
(PID.TID 0000.0001)     ;
(PID.TID 0000.0001) PTRACERS_useKPP = /* apply KPP scheme */
(PID.TID 0000.0001)                   T
(PID.TID 0000.0001)     ;
(PID.TID 0000.0001) PTRACERS_ref = /* Reference vertical profile */
(PID.TID 0000.0001)    23 @  0.000000000000000E+00              /* K =  1: 23 */
(PID.TID 0000.0001)     ;
(PID.TID 0000.0001) PTRACERS_EvPrRn =/* tracer conc. in Evap. & Rain */
(PID.TID 0000.0001)                 1.234567000000000E+05
(PID.TID 0000.0001)     ;
(PID.TID 0000.0001)  -----------------------------------
(PID.TID 0000.0001)  tracer number :   69
(PID.TID 0000.0001) PTRACERS_names = /* Tracer short name */
(PID.TID 0000.0001)               'Chl12'
(PID.TID 0000.0001)     ;
(PID.TID 0000.0001) PTRACERS_long_names = /* Tracer long name */
(PID.TID 0000.0001)               ''
(PID.TID 0000.0001)     ;
(PID.TID 0000.0001) PTRACERS_ioLabel = /* tracer IO Label */
(PID.TID 0000.0001)               '69'
(PID.TID 0000.0001)     ;
(PID.TID 0000.0001) PTRACERS_advScheme = /* Advection Scheme */
(PID.TID 0000.0001)                      33
(PID.TID 0000.0001)     ;
(PID.TID 0000.0001) PTRACERS_SOM_Advection = /* tracer uses SOM advection scheme */
(PID.TID 0000.0001)                   F
(PID.TID 0000.0001)     ;
(PID.TID 0000.0001) PTRACERS_ImplVertAdv = /* implicit vert. advection flag */
(PID.TID 0000.0001)                   F
(PID.TID 0000.0001)     ;
(PID.TID 0000.0001) PTRACERS_diffKh = /* Laplacian Diffusivity */
(PID.TID 0000.0001)                 0.000000000000000E+00
(PID.TID 0000.0001)     ;
(PID.TID 0000.0001) PTRACERS_diffK4 = /* Biharmonic Diffusivity */
(PID.TID 0000.0001)                 0.000000000000000E+00
(PID.TID 0000.0001)     ;
(PID.TID 0000.0001) PTRACERS_diffKrNr = /* Vertical Diffusivity */
(PID.TID 0000.0001)    23 @  1.000000000000000E-05              /* K =  1: 23 */
(PID.TID 0000.0001)     ;
(PID.TID 0000.0001) PTRACERS_useGMRedi = /* apply GM-Redi */
(PID.TID 0000.0001)                   T
(PID.TID 0000.0001)     ;
(PID.TID 0000.0001) PTRACERS_useDWNSLP = /* apply DOWN-SLOPE Flow */
(PID.TID 0000.0001)                   F
(PID.TID 0000.0001)     ;
(PID.TID 0000.0001) PTRACERS_useKPP = /* apply KPP scheme */
(PID.TID 0000.0001)                   T
(PID.TID 0000.0001)     ;
(PID.TID 0000.0001) PTRACERS_ref = /* Reference vertical profile */
(PID.TID 0000.0001)    23 @  0.000000000000000E+00              /* K =  1: 23 */
(PID.TID 0000.0001)     ;
(PID.TID 0000.0001) PTRACERS_EvPrRn =/* tracer conc. in Evap. & Rain */
(PID.TID 0000.0001)                 1.234567000000000E+05
(PID.TID 0000.0001)     ;
(PID.TID 0000.0001)  -----------------------------------
(PID.TID 0000.0001)  tracer number :   70
(PID.TID 0000.0001) PTRACERS_names = /* Tracer short name */
(PID.TID 0000.0001)               'Chl13'
(PID.TID 0000.0001)     ;
(PID.TID 0000.0001) PTRACERS_long_names = /* Tracer long name */
(PID.TID 0000.0001)               ''
(PID.TID 0000.0001)     ;
(PID.TID 0000.0001) PTRACERS_ioLabel = /* tracer IO Label */
(PID.TID 0000.0001)               '70'
(PID.TID 0000.0001)     ;
(PID.TID 0000.0001) PTRACERS_advScheme = /* Advection Scheme */
(PID.TID 0000.0001)                      33
(PID.TID 0000.0001)     ;
(PID.TID 0000.0001) PTRACERS_SOM_Advection = /* tracer uses SOM advection scheme */
(PID.TID 0000.0001)                   F
(PID.TID 0000.0001)     ;
(PID.TID 0000.0001) PTRACERS_ImplVertAdv = /* implicit vert. advection flag */
(PID.TID 0000.0001)                   F
(PID.TID 0000.0001)     ;
(PID.TID 0000.0001) PTRACERS_diffKh = /* Laplacian Diffusivity */
(PID.TID 0000.0001)                 0.000000000000000E+00
(PID.TID 0000.0001)     ;
(PID.TID 0000.0001) PTRACERS_diffK4 = /* Biharmonic Diffusivity */
(PID.TID 0000.0001)                 0.000000000000000E+00
(PID.TID 0000.0001)     ;
(PID.TID 0000.0001) PTRACERS_diffKrNr = /* Vertical Diffusivity */
(PID.TID 0000.0001)    23 @  1.000000000000000E-05              /* K =  1: 23 */
(PID.TID 0000.0001)     ;
(PID.TID 0000.0001) PTRACERS_useGMRedi = /* apply GM-Redi */
(PID.TID 0000.0001)                   T
(PID.TID 0000.0001)     ;
(PID.TID 0000.0001) PTRACERS_useDWNSLP = /* apply DOWN-SLOPE Flow */
(PID.TID 0000.0001)                   F
(PID.TID 0000.0001)     ;
(PID.TID 0000.0001) PTRACERS_useKPP = /* apply KPP scheme */
(PID.TID 0000.0001)                   T
(PID.TID 0000.0001)     ;
(PID.TID 0000.0001) PTRACERS_ref = /* Reference vertical profile */
(PID.TID 0000.0001)    23 @  0.000000000000000E+00              /* K =  1: 23 */
(PID.TID 0000.0001)     ;
(PID.TID 0000.0001) PTRACERS_EvPrRn =/* tracer conc. in Evap. & Rain */
(PID.TID 0000.0001)                 1.234567000000000E+05
(PID.TID 0000.0001)     ;
(PID.TID 0000.0001)  -----------------------------------
(PID.TID 0000.0001)  tracer number :   71
(PID.TID 0000.0001) PTRACERS_names = /* Tracer short name */
(PID.TID 0000.0001)               'Chl14'
(PID.TID 0000.0001)     ;
(PID.TID 0000.0001) PTRACERS_long_names = /* Tracer long name */
(PID.TID 0000.0001)               ''
(PID.TID 0000.0001)     ;
(PID.TID 0000.0001) PTRACERS_ioLabel = /* tracer IO Label */
(PID.TID 0000.0001)               '71'
(PID.TID 0000.0001)     ;
(PID.TID 0000.0001) PTRACERS_advScheme = /* Advection Scheme */
(PID.TID 0000.0001)                      33
(PID.TID 0000.0001)     ;
(PID.TID 0000.0001) PTRACERS_SOM_Advection = /* tracer uses SOM advection scheme */
(PID.TID 0000.0001)                   F
(PID.TID 0000.0001)     ;
(PID.TID 0000.0001) PTRACERS_ImplVertAdv = /* implicit vert. advection flag */
(PID.TID 0000.0001)                   F
(PID.TID 0000.0001)     ;
(PID.TID 0000.0001) PTRACERS_diffKh = /* Laplacian Diffusivity */
(PID.TID 0000.0001)                 0.000000000000000E+00
(PID.TID 0000.0001)     ;
(PID.TID 0000.0001) PTRACERS_diffK4 = /* Biharmonic Diffusivity */
(PID.TID 0000.0001)                 0.000000000000000E+00
(PID.TID 0000.0001)     ;
(PID.TID 0000.0001) PTRACERS_diffKrNr = /* Vertical Diffusivity */
(PID.TID 0000.0001)    23 @  1.000000000000000E-05              /* K =  1: 23 */
(PID.TID 0000.0001)     ;
(PID.TID 0000.0001) PTRACERS_useGMRedi = /* apply GM-Redi */
(PID.TID 0000.0001)                   T
(PID.TID 0000.0001)     ;
(PID.TID 0000.0001) PTRACERS_useDWNSLP = /* apply DOWN-SLOPE Flow */
(PID.TID 0000.0001)                   F
(PID.TID 0000.0001)     ;
(PID.TID 0000.0001) PTRACERS_useKPP = /* apply KPP scheme */
(PID.TID 0000.0001)                   T
(PID.TID 0000.0001)     ;
(PID.TID 0000.0001) PTRACERS_ref = /* Reference vertical profile */
(PID.TID 0000.0001)    23 @  0.000000000000000E+00              /* K =  1: 23 */
(PID.TID 0000.0001)     ;
(PID.TID 0000.0001) PTRACERS_EvPrRn =/* tracer conc. in Evap. & Rain */
(PID.TID 0000.0001)                 1.234567000000000E+05
(PID.TID 0000.0001)     ;
(PID.TID 0000.0001)  -----------------------------------
(PID.TID 0000.0001)  tracer number :   72
(PID.TID 0000.0001) PTRACERS_names = /* Tracer short name */
(PID.TID 0000.0001)               'Chl15'
(PID.TID 0000.0001)     ;
(PID.TID 0000.0001) PTRACERS_long_names = /* Tracer long name */
(PID.TID 0000.0001)               ''
(PID.TID 0000.0001)     ;
(PID.TID 0000.0001) PTRACERS_ioLabel = /* tracer IO Label */
(PID.TID 0000.0001)               '72'
(PID.TID 0000.0001)     ;
(PID.TID 0000.0001) PTRACERS_advScheme = /* Advection Scheme */
(PID.TID 0000.0001)                      33
(PID.TID 0000.0001)     ;
(PID.TID 0000.0001) PTRACERS_SOM_Advection = /* tracer uses SOM advection scheme */
(PID.TID 0000.0001)                   F
(PID.TID 0000.0001)     ;
(PID.TID 0000.0001) PTRACERS_ImplVertAdv = /* implicit vert. advection flag */
(PID.TID 0000.0001)                   F
(PID.TID 0000.0001)     ;
(PID.TID 0000.0001) PTRACERS_diffKh = /* Laplacian Diffusivity */
(PID.TID 0000.0001)                 0.000000000000000E+00
(PID.TID 0000.0001)     ;
(PID.TID 0000.0001) PTRACERS_diffK4 = /* Biharmonic Diffusivity */
(PID.TID 0000.0001)                 0.000000000000000E+00
(PID.TID 0000.0001)     ;
(PID.TID 0000.0001) PTRACERS_diffKrNr = /* Vertical Diffusivity */
(PID.TID 0000.0001)    23 @  1.000000000000000E-05              /* K =  1: 23 */
(PID.TID 0000.0001)     ;
(PID.TID 0000.0001) PTRACERS_useGMRedi = /* apply GM-Redi */
(PID.TID 0000.0001)                   T
(PID.TID 0000.0001)     ;
(PID.TID 0000.0001) PTRACERS_useDWNSLP = /* apply DOWN-SLOPE Flow */
(PID.TID 0000.0001)                   F
(PID.TID 0000.0001)     ;
(PID.TID 0000.0001) PTRACERS_useKPP = /* apply KPP scheme */
(PID.TID 0000.0001)                   T
(PID.TID 0000.0001)     ;
(PID.TID 0000.0001) PTRACERS_ref = /* Reference vertical profile */
(PID.TID 0000.0001)    23 @  0.000000000000000E+00              /* K =  1: 23 */
(PID.TID 0000.0001)     ;
(PID.TID 0000.0001) PTRACERS_EvPrRn =/* tracer conc. in Evap. & Rain */
(PID.TID 0000.0001)                 1.234567000000000E+05
(PID.TID 0000.0001)     ;
(PID.TID 0000.0001)  -----------------------------------
(PID.TID 0000.0001)  tracer number :   73
(PID.TID 0000.0001) PTRACERS_names = /* Tracer short name */
(PID.TID 0000.0001)               'Chl16'
(PID.TID 0000.0001)     ;
(PID.TID 0000.0001) PTRACERS_long_names = /* Tracer long name */
(PID.TID 0000.0001)               ''
(PID.TID 0000.0001)     ;
(PID.TID 0000.0001) PTRACERS_ioLabel = /* tracer IO Label */
(PID.TID 0000.0001)               '73'
(PID.TID 0000.0001)     ;
(PID.TID 0000.0001) PTRACERS_advScheme = /* Advection Scheme */
(PID.TID 0000.0001)                      33
(PID.TID 0000.0001)     ;
(PID.TID 0000.0001) PTRACERS_SOM_Advection = /* tracer uses SOM advection scheme */
(PID.TID 0000.0001)                   F
(PID.TID 0000.0001)     ;
(PID.TID 0000.0001) PTRACERS_ImplVertAdv = /* implicit vert. advection flag */
(PID.TID 0000.0001)                   F
(PID.TID 0000.0001)     ;
(PID.TID 0000.0001) PTRACERS_diffKh = /* Laplacian Diffusivity */
(PID.TID 0000.0001)                 0.000000000000000E+00
(PID.TID 0000.0001)     ;
(PID.TID 0000.0001) PTRACERS_diffK4 = /* Biharmonic Diffusivity */
(PID.TID 0000.0001)                 0.000000000000000E+00
(PID.TID 0000.0001)     ;
(PID.TID 0000.0001) PTRACERS_diffKrNr = /* Vertical Diffusivity */
(PID.TID 0000.0001)    23 @  1.000000000000000E-05              /* K =  1: 23 */
(PID.TID 0000.0001)     ;
(PID.TID 0000.0001) PTRACERS_useGMRedi = /* apply GM-Redi */
(PID.TID 0000.0001)                   T
(PID.TID 0000.0001)     ;
(PID.TID 0000.0001) PTRACERS_useDWNSLP = /* apply DOWN-SLOPE Flow */
(PID.TID 0000.0001)                   F
(PID.TID 0000.0001)     ;
(PID.TID 0000.0001) PTRACERS_useKPP = /* apply KPP scheme */
(PID.TID 0000.0001)                   T
(PID.TID 0000.0001)     ;
(PID.TID 0000.0001) PTRACERS_ref = /* Reference vertical profile */
(PID.TID 0000.0001)    23 @  0.000000000000000E+00              /* K =  1: 23 */
(PID.TID 0000.0001)     ;
(PID.TID 0000.0001) PTRACERS_EvPrRn =/* tracer conc. in Evap. & Rain */
(PID.TID 0000.0001)                 1.234567000000000E+05
(PID.TID 0000.0001)     ;
(PID.TID 0000.0001)  -----------------------------------
(PID.TID 0000.0001)  tracer number :   74
(PID.TID 0000.0001) PTRACERS_names = /* Tracer short name */
(PID.TID 0000.0001)               'Chl17'
(PID.TID 0000.0001)     ;
(PID.TID 0000.0001) PTRACERS_long_names = /* Tracer long name */
(PID.TID 0000.0001)               ''
(PID.TID 0000.0001)     ;
(PID.TID 0000.0001) PTRACERS_ioLabel = /* tracer IO Label */
(PID.TID 0000.0001)               '74'
(PID.TID 0000.0001)     ;
(PID.TID 0000.0001) PTRACERS_advScheme = /* Advection Scheme */
(PID.TID 0000.0001)                      33
(PID.TID 0000.0001)     ;
(PID.TID 0000.0001) PTRACERS_SOM_Advection = /* tracer uses SOM advection scheme */
(PID.TID 0000.0001)                   F
(PID.TID 0000.0001)     ;
(PID.TID 0000.0001) PTRACERS_ImplVertAdv = /* implicit vert. advection flag */
(PID.TID 0000.0001)                   F
(PID.TID 0000.0001)     ;
(PID.TID 0000.0001) PTRACERS_diffKh = /* Laplacian Diffusivity */
(PID.TID 0000.0001)                 0.000000000000000E+00
(PID.TID 0000.0001)     ;
(PID.TID 0000.0001) PTRACERS_diffK4 = /* Biharmonic Diffusivity */
(PID.TID 0000.0001)                 0.000000000000000E+00
(PID.TID 0000.0001)     ;
(PID.TID 0000.0001) PTRACERS_diffKrNr = /* Vertical Diffusivity */
(PID.TID 0000.0001)    23 @  1.000000000000000E-05              /* K =  1: 23 */
(PID.TID 0000.0001)     ;
(PID.TID 0000.0001) PTRACERS_useGMRedi = /* apply GM-Redi */
(PID.TID 0000.0001)                   T
(PID.TID 0000.0001)     ;
(PID.TID 0000.0001) PTRACERS_useDWNSLP = /* apply DOWN-SLOPE Flow */
(PID.TID 0000.0001)                   F
(PID.TID 0000.0001)     ;
(PID.TID 0000.0001) PTRACERS_useKPP = /* apply KPP scheme */
(PID.TID 0000.0001)                   T
(PID.TID 0000.0001)     ;
(PID.TID 0000.0001) PTRACERS_ref = /* Reference vertical profile */
(PID.TID 0000.0001)    23 @  0.000000000000000E+00              /* K =  1: 23 */
(PID.TID 0000.0001)     ;
(PID.TID 0000.0001) PTRACERS_EvPrRn =/* tracer conc. in Evap. & Rain */
(PID.TID 0000.0001)                 1.234567000000000E+05
(PID.TID 0000.0001)     ;
(PID.TID 0000.0001)  -----------------------------------
(PID.TID 0000.0001)  tracer number :   75
(PID.TID 0000.0001) PTRACERS_names = /* Tracer short name */
(PID.TID 0000.0001)               'Chl18'
(PID.TID 0000.0001)     ;
(PID.TID 0000.0001) PTRACERS_long_names = /* Tracer long name */
(PID.TID 0000.0001)               ''
(PID.TID 0000.0001)     ;
(PID.TID 0000.0001) PTRACERS_ioLabel = /* tracer IO Label */
(PID.TID 0000.0001)               '75'
(PID.TID 0000.0001)     ;
(PID.TID 0000.0001) PTRACERS_advScheme = /* Advection Scheme */
(PID.TID 0000.0001)                      33
(PID.TID 0000.0001)     ;
(PID.TID 0000.0001) PTRACERS_SOM_Advection = /* tracer uses SOM advection scheme */
(PID.TID 0000.0001)                   F
(PID.TID 0000.0001)     ;
(PID.TID 0000.0001) PTRACERS_ImplVertAdv = /* implicit vert. advection flag */
(PID.TID 0000.0001)                   F
(PID.TID 0000.0001)     ;
(PID.TID 0000.0001) PTRACERS_diffKh = /* Laplacian Diffusivity */
(PID.TID 0000.0001)                 0.000000000000000E+00
(PID.TID 0000.0001)     ;
(PID.TID 0000.0001) PTRACERS_diffK4 = /* Biharmonic Diffusivity */
(PID.TID 0000.0001)                 0.000000000000000E+00
(PID.TID 0000.0001)     ;
(PID.TID 0000.0001) PTRACERS_diffKrNr = /* Vertical Diffusivity */
(PID.TID 0000.0001)    23 @  1.000000000000000E-05              /* K =  1: 23 */
(PID.TID 0000.0001)     ;
(PID.TID 0000.0001) PTRACERS_useGMRedi = /* apply GM-Redi */
(PID.TID 0000.0001)                   T
(PID.TID 0000.0001)     ;
(PID.TID 0000.0001) PTRACERS_useDWNSLP = /* apply DOWN-SLOPE Flow */
(PID.TID 0000.0001)                   F
(PID.TID 0000.0001)     ;
(PID.TID 0000.0001) PTRACERS_useKPP = /* apply KPP scheme */
(PID.TID 0000.0001)                   T
(PID.TID 0000.0001)     ;
(PID.TID 0000.0001) PTRACERS_ref = /* Reference vertical profile */
(PID.TID 0000.0001)    23 @  0.000000000000000E+00              /* K =  1: 23 */
(PID.TID 0000.0001)     ;
(PID.TID 0000.0001) PTRACERS_EvPrRn =/* tracer conc. in Evap. & Rain */
(PID.TID 0000.0001)                 1.234567000000000E+05
(PID.TID 0000.0001)     ;
(PID.TID 0000.0001)  -----------------------------------
(PID.TID 0000.0001)  tracer number :   76
(PID.TID 0000.0001) PTRACERS_names = /* Tracer short name */
(PID.TID 0000.0001)               'Chl19'
(PID.TID 0000.0001)     ;
(PID.TID 0000.0001) PTRACERS_long_names = /* Tracer long name */
(PID.TID 0000.0001)               ''
(PID.TID 0000.0001)     ;
(PID.TID 0000.0001) PTRACERS_ioLabel = /* tracer IO Label */
(PID.TID 0000.0001)               '76'
(PID.TID 0000.0001)     ;
(PID.TID 0000.0001) PTRACERS_advScheme = /* Advection Scheme */
(PID.TID 0000.0001)                      33
(PID.TID 0000.0001)     ;
(PID.TID 0000.0001) PTRACERS_SOM_Advection = /* tracer uses SOM advection scheme */
(PID.TID 0000.0001)                   F
(PID.TID 0000.0001)     ;
(PID.TID 0000.0001) PTRACERS_ImplVertAdv = /* implicit vert. advection flag */
(PID.TID 0000.0001)                   F
(PID.TID 0000.0001)     ;
(PID.TID 0000.0001) PTRACERS_diffKh = /* Laplacian Diffusivity */
(PID.TID 0000.0001)                 0.000000000000000E+00
(PID.TID 0000.0001)     ;
(PID.TID 0000.0001) PTRACERS_diffK4 = /* Biharmonic Diffusivity */
(PID.TID 0000.0001)                 0.000000000000000E+00
(PID.TID 0000.0001)     ;
(PID.TID 0000.0001) PTRACERS_diffKrNr = /* Vertical Diffusivity */
(PID.TID 0000.0001)    23 @  1.000000000000000E-05              /* K =  1: 23 */
(PID.TID 0000.0001)     ;
(PID.TID 0000.0001) PTRACERS_useGMRedi = /* apply GM-Redi */
(PID.TID 0000.0001)                   T
(PID.TID 0000.0001)     ;
(PID.TID 0000.0001) PTRACERS_useDWNSLP = /* apply DOWN-SLOPE Flow */
(PID.TID 0000.0001)                   F
(PID.TID 0000.0001)     ;
(PID.TID 0000.0001) PTRACERS_useKPP = /* apply KPP scheme */
(PID.TID 0000.0001)                   T
(PID.TID 0000.0001)     ;
(PID.TID 0000.0001) PTRACERS_ref = /* Reference vertical profile */
(PID.TID 0000.0001)    23 @  0.000000000000000E+00              /* K =  1: 23 */
(PID.TID 0000.0001)     ;
(PID.TID 0000.0001) PTRACERS_EvPrRn =/* tracer conc. in Evap. & Rain */
(PID.TID 0000.0001)                 1.234567000000000E+05
(PID.TID 0000.0001)     ;
(PID.TID 0000.0001)  -----------------------------------
(PID.TID 0000.0001)  tracer number :   77
(PID.TID 0000.0001) PTRACERS_names = /* Tracer short name */
(PID.TID 0000.0001)               'Chl20'
(PID.TID 0000.0001)     ;
(PID.TID 0000.0001) PTRACERS_long_names = /* Tracer long name */
(PID.TID 0000.0001)               ''
(PID.TID 0000.0001)     ;
(PID.TID 0000.0001) PTRACERS_ioLabel = /* tracer IO Label */
(PID.TID 0000.0001)               '77'
(PID.TID 0000.0001)     ;
(PID.TID 0000.0001) PTRACERS_advScheme = /* Advection Scheme */
(PID.TID 0000.0001)                      33
(PID.TID 0000.0001)     ;
(PID.TID 0000.0001) PTRACERS_SOM_Advection = /* tracer uses SOM advection scheme */
(PID.TID 0000.0001)                   F
(PID.TID 0000.0001)     ;
(PID.TID 0000.0001) PTRACERS_ImplVertAdv = /* implicit vert. advection flag */
(PID.TID 0000.0001)                   F
(PID.TID 0000.0001)     ;
(PID.TID 0000.0001) PTRACERS_diffKh = /* Laplacian Diffusivity */
(PID.TID 0000.0001)                 0.000000000000000E+00
(PID.TID 0000.0001)     ;
(PID.TID 0000.0001) PTRACERS_diffK4 = /* Biharmonic Diffusivity */
(PID.TID 0000.0001)                 0.000000000000000E+00
(PID.TID 0000.0001)     ;
(PID.TID 0000.0001) PTRACERS_diffKrNr = /* Vertical Diffusivity */
(PID.TID 0000.0001)    23 @  1.000000000000000E-05              /* K =  1: 23 */
(PID.TID 0000.0001)     ;
(PID.TID 0000.0001) PTRACERS_useGMRedi = /* apply GM-Redi */
(PID.TID 0000.0001)                   T
(PID.TID 0000.0001)     ;
(PID.TID 0000.0001) PTRACERS_useDWNSLP = /* apply DOWN-SLOPE Flow */
(PID.TID 0000.0001)                   F
(PID.TID 0000.0001)     ;
(PID.TID 0000.0001) PTRACERS_useKPP = /* apply KPP scheme */
(PID.TID 0000.0001)                   T
(PID.TID 0000.0001)     ;
(PID.TID 0000.0001) PTRACERS_ref = /* Reference vertical profile */
(PID.TID 0000.0001)    23 @  0.000000000000000E+00              /* K =  1: 23 */
(PID.TID 0000.0001)     ;
(PID.TID 0000.0001) PTRACERS_EvPrRn =/* tracer conc. in Evap. & Rain */
(PID.TID 0000.0001)                 1.234567000000000E+05
(PID.TID 0000.0001)     ;
(PID.TID 0000.0001)  -----------------------------------
(PID.TID 0000.0001)  tracer number :   78
(PID.TID 0000.0001) PTRACERS_names = /* Tracer short name */
(PID.TID 0000.0001)               'Chl21'
(PID.TID 0000.0001)     ;
(PID.TID 0000.0001) PTRACERS_long_names = /* Tracer long name */
(PID.TID 0000.0001)               ''
(PID.TID 0000.0001)     ;
(PID.TID 0000.0001) PTRACERS_ioLabel = /* tracer IO Label */
(PID.TID 0000.0001)               '78'
(PID.TID 0000.0001)     ;
(PID.TID 0000.0001) PTRACERS_advScheme = /* Advection Scheme */
(PID.TID 0000.0001)                      33
(PID.TID 0000.0001)     ;
(PID.TID 0000.0001) PTRACERS_SOM_Advection = /* tracer uses SOM advection scheme */
(PID.TID 0000.0001)                   F
(PID.TID 0000.0001)     ;
(PID.TID 0000.0001) PTRACERS_ImplVertAdv = /* implicit vert. advection flag */
(PID.TID 0000.0001)                   F
(PID.TID 0000.0001)     ;
(PID.TID 0000.0001) PTRACERS_diffKh = /* Laplacian Diffusivity */
(PID.TID 0000.0001)                 0.000000000000000E+00
(PID.TID 0000.0001)     ;
(PID.TID 0000.0001) PTRACERS_diffK4 = /* Biharmonic Diffusivity */
(PID.TID 0000.0001)                 0.000000000000000E+00
(PID.TID 0000.0001)     ;
(PID.TID 0000.0001) PTRACERS_diffKrNr = /* Vertical Diffusivity */
(PID.TID 0000.0001)    23 @  1.000000000000000E-05              /* K =  1: 23 */
(PID.TID 0000.0001)     ;
(PID.TID 0000.0001) PTRACERS_useGMRedi = /* apply GM-Redi */
(PID.TID 0000.0001)                   T
(PID.TID 0000.0001)     ;
(PID.TID 0000.0001) PTRACERS_useDWNSLP = /* apply DOWN-SLOPE Flow */
(PID.TID 0000.0001)                   F
(PID.TID 0000.0001)     ;
(PID.TID 0000.0001) PTRACERS_useKPP = /* apply KPP scheme */
(PID.TID 0000.0001)                   T
(PID.TID 0000.0001)     ;
(PID.TID 0000.0001) PTRACERS_ref = /* Reference vertical profile */
(PID.TID 0000.0001)    23 @  0.000000000000000E+00              /* K =  1: 23 */
(PID.TID 0000.0001)     ;
(PID.TID 0000.0001) PTRACERS_EvPrRn =/* tracer conc. in Evap. & Rain */
(PID.TID 0000.0001)                 1.234567000000000E+05
(PID.TID 0000.0001)     ;
(PID.TID 0000.0001)  -----------------------------------
(PID.TID 0000.0001)  tracer number :   79
(PID.TID 0000.0001) PTRACERS_names = /* Tracer short name */
(PID.TID 0000.0001)               'Chl22'
(PID.TID 0000.0001)     ;
(PID.TID 0000.0001) PTRACERS_long_names = /* Tracer long name */
(PID.TID 0000.0001)               ''
(PID.TID 0000.0001)     ;
(PID.TID 0000.0001) PTRACERS_ioLabel = /* tracer IO Label */
(PID.TID 0000.0001)               '79'
(PID.TID 0000.0001)     ;
(PID.TID 0000.0001) PTRACERS_advScheme = /* Advection Scheme */
(PID.TID 0000.0001)                      33
(PID.TID 0000.0001)     ;
(PID.TID 0000.0001) PTRACERS_SOM_Advection = /* tracer uses SOM advection scheme */
(PID.TID 0000.0001)                   F
(PID.TID 0000.0001)     ;
(PID.TID 0000.0001) PTRACERS_ImplVertAdv = /* implicit vert. advection flag */
(PID.TID 0000.0001)                   F
(PID.TID 0000.0001)     ;
(PID.TID 0000.0001) PTRACERS_diffKh = /* Laplacian Diffusivity */
(PID.TID 0000.0001)                 0.000000000000000E+00
(PID.TID 0000.0001)     ;
(PID.TID 0000.0001) PTRACERS_diffK4 = /* Biharmonic Diffusivity */
(PID.TID 0000.0001)                 0.000000000000000E+00
(PID.TID 0000.0001)     ;
(PID.TID 0000.0001) PTRACERS_diffKrNr = /* Vertical Diffusivity */
(PID.TID 0000.0001)    23 @  1.000000000000000E-05              /* K =  1: 23 */
(PID.TID 0000.0001)     ;
(PID.TID 0000.0001) PTRACERS_useGMRedi = /* apply GM-Redi */
(PID.TID 0000.0001)                   T
(PID.TID 0000.0001)     ;
(PID.TID 0000.0001) PTRACERS_useDWNSLP = /* apply DOWN-SLOPE Flow */
(PID.TID 0000.0001)                   F
(PID.TID 0000.0001)     ;
(PID.TID 0000.0001) PTRACERS_useKPP = /* apply KPP scheme */
(PID.TID 0000.0001)                   T
(PID.TID 0000.0001)     ;
(PID.TID 0000.0001) PTRACERS_ref = /* Reference vertical profile */
(PID.TID 0000.0001)    23 @  0.000000000000000E+00              /* K =  1: 23 */
(PID.TID 0000.0001)     ;
(PID.TID 0000.0001) PTRACERS_EvPrRn =/* tracer conc. in Evap. & Rain */
(PID.TID 0000.0001)                 1.234567000000000E+05
(PID.TID 0000.0001)     ;
(PID.TID 0000.0001)  -----------------------------------
(PID.TID 0000.0001)  tracer number :   80
(PID.TID 0000.0001) PTRACERS_names = /* Tracer short name */
(PID.TID 0000.0001)               'Chl23'
(PID.TID 0000.0001)     ;
(PID.TID 0000.0001) PTRACERS_long_names = /* Tracer long name */
(PID.TID 0000.0001)               ''
(PID.TID 0000.0001)     ;
(PID.TID 0000.0001) PTRACERS_ioLabel = /* tracer IO Label */
(PID.TID 0000.0001)               '80'
(PID.TID 0000.0001)     ;
(PID.TID 0000.0001) PTRACERS_advScheme = /* Advection Scheme */
(PID.TID 0000.0001)                      33
(PID.TID 0000.0001)     ;
(PID.TID 0000.0001) PTRACERS_SOM_Advection = /* tracer uses SOM advection scheme */
(PID.TID 0000.0001)                   F
(PID.TID 0000.0001)     ;
(PID.TID 0000.0001) PTRACERS_ImplVertAdv = /* implicit vert. advection flag */
(PID.TID 0000.0001)                   F
(PID.TID 0000.0001)     ;
(PID.TID 0000.0001) PTRACERS_diffKh = /* Laplacian Diffusivity */
(PID.TID 0000.0001)                 0.000000000000000E+00
(PID.TID 0000.0001)     ;
(PID.TID 0000.0001) PTRACERS_diffK4 = /* Biharmonic Diffusivity */
(PID.TID 0000.0001)                 0.000000000000000E+00
(PID.TID 0000.0001)     ;
(PID.TID 0000.0001) PTRACERS_diffKrNr = /* Vertical Diffusivity */
(PID.TID 0000.0001)    23 @  1.000000000000000E-05              /* K =  1: 23 */
(PID.TID 0000.0001)     ;
(PID.TID 0000.0001) PTRACERS_useGMRedi = /* apply GM-Redi */
(PID.TID 0000.0001)                   T
(PID.TID 0000.0001)     ;
(PID.TID 0000.0001) PTRACERS_useDWNSLP = /* apply DOWN-SLOPE Flow */
(PID.TID 0000.0001)                   F
(PID.TID 0000.0001)     ;
(PID.TID 0000.0001) PTRACERS_useKPP = /* apply KPP scheme */
(PID.TID 0000.0001)                   T
(PID.TID 0000.0001)     ;
(PID.TID 0000.0001) PTRACERS_ref = /* Reference vertical profile */
(PID.TID 0000.0001)    23 @  0.000000000000000E+00              /* K =  1: 23 */
(PID.TID 0000.0001)     ;
(PID.TID 0000.0001) PTRACERS_EvPrRn =/* tracer conc. in Evap. & Rain */
(PID.TID 0000.0001)                 1.234567000000000E+05
(PID.TID 0000.0001)     ;
(PID.TID 0000.0001)  -----------------------------------
(PID.TID 0000.0001)  tracer number :   81
(PID.TID 0000.0001) PTRACERS_names = /* Tracer short name */
(PID.TID 0000.0001)               'Chl24'
(PID.TID 0000.0001)     ;
(PID.TID 0000.0001) PTRACERS_long_names = /* Tracer long name */
(PID.TID 0000.0001)               ''
(PID.TID 0000.0001)     ;
(PID.TID 0000.0001) PTRACERS_ioLabel = /* tracer IO Label */
(PID.TID 0000.0001)               '81'
(PID.TID 0000.0001)     ;
(PID.TID 0000.0001) PTRACERS_advScheme = /* Advection Scheme */
(PID.TID 0000.0001)                      33
(PID.TID 0000.0001)     ;
(PID.TID 0000.0001) PTRACERS_SOM_Advection = /* tracer uses SOM advection scheme */
(PID.TID 0000.0001)                   F
(PID.TID 0000.0001)     ;
(PID.TID 0000.0001) PTRACERS_ImplVertAdv = /* implicit vert. advection flag */
(PID.TID 0000.0001)                   F
(PID.TID 0000.0001)     ;
(PID.TID 0000.0001) PTRACERS_diffKh = /* Laplacian Diffusivity */
(PID.TID 0000.0001)                 0.000000000000000E+00
(PID.TID 0000.0001)     ;
(PID.TID 0000.0001) PTRACERS_diffK4 = /* Biharmonic Diffusivity */
(PID.TID 0000.0001)                 0.000000000000000E+00
(PID.TID 0000.0001)     ;
(PID.TID 0000.0001) PTRACERS_diffKrNr = /* Vertical Diffusivity */
(PID.TID 0000.0001)    23 @  1.000000000000000E-05              /* K =  1: 23 */
(PID.TID 0000.0001)     ;
(PID.TID 0000.0001) PTRACERS_useGMRedi = /* apply GM-Redi */
(PID.TID 0000.0001)                   T
(PID.TID 0000.0001)     ;
(PID.TID 0000.0001) PTRACERS_useDWNSLP = /* apply DOWN-SLOPE Flow */
(PID.TID 0000.0001)                   F
(PID.TID 0000.0001)     ;
(PID.TID 0000.0001) PTRACERS_useKPP = /* apply KPP scheme */
(PID.TID 0000.0001)                   T
(PID.TID 0000.0001)     ;
(PID.TID 0000.0001) PTRACERS_ref = /* Reference vertical profile */
(PID.TID 0000.0001)    23 @  0.000000000000000E+00              /* K =  1: 23 */
(PID.TID 0000.0001)     ;
(PID.TID 0000.0001) PTRACERS_EvPrRn =/* tracer conc. in Evap. & Rain */
(PID.TID 0000.0001)                 1.234567000000000E+05
(PID.TID 0000.0001)     ;
(PID.TID 0000.0001)  -----------------------------------
(PID.TID 0000.0001) GCHEM_CHECK: #define ALLOW_GCHEM
(PID.TID 0000.0001) GUD_CHECK: #define ALLOW_GUD
(PID.TID 0000.0001) GUD_CHECK: iPtr gud   PTRACERS_names
(PID.TID 0000.0001) GUD_CHECK:    1 DIC      DIC
(PID.TID 0000.0001) GUD_CHECK:    2 NH4      NH4
(PID.TID 0000.0001) GUD_CHECK:    3 NO2      NO2
(PID.TID 0000.0001) GUD_CHECK:    4 NO3      NO3
(PID.TID 0000.0001) GUD_CHECK:    5 PO4      PO4
(PID.TID 0000.0001) GUD_CHECK:    6 SiO2     SiO2
(PID.TID 0000.0001) GUD_CHECK:    7 FeT      FeT
(PID.TID 0000.0001) GUD_CHECK:    8 DOC      DOC
(PID.TID 0000.0001) GUD_CHECK:    9 DON      DON
(PID.TID 0000.0001) GUD_CHECK:   10 DOP      DOP
(PID.TID 0000.0001) GUD_CHECK:   11 DOFe     DOFe
(PID.TID 0000.0001) GUD_CHECK:   12 POC      POC
(PID.TID 0000.0001) GUD_CHECK:   13 PON      PON
(PID.TID 0000.0001) GUD_CHECK:   14 POP      POP
(PID.TID 0000.0001) GUD_CHECK:   15 POSi     POSi
(PID.TID 0000.0001) GUD_CHECK:   16 POFe     POFe
(PID.TID 0000.0001) GUD_CHECK:   17 PIC      PIC
(PID.TID 0000.0001) GUD_CHECK:   18 ALK      ALK
(PID.TID 0000.0001) GUD_CHECK:   19 O2       O2
(PID.TID 0000.0001) GUD_CHECK:   20 c    (1) c01
(PID.TID 0000.0001) GUD_CHECK:   21 c    (2) c02
(PID.TID 0000.0001) GUD_CHECK:   22 c    (3) c03
(PID.TID 0000.0001) GUD_CHECK:   23 c    (4) c04
(PID.TID 0000.0001) GUD_CHECK:   24 c    (5) c05
(PID.TID 0000.0001) GUD_CHECK:   25 c    (6) c06
(PID.TID 0000.0001) GUD_CHECK:   26 c    (7) c07
(PID.TID 0000.0001) GUD_CHECK:   27 c    (8) c08
(PID.TID 0000.0001) GUD_CHECK:   28 c    (9) c09
(PID.TID 0000.0001) GUD_CHECK:   29 c    (*) c10
(PID.TID 0000.0001) GUD_CHECK:   30 c    (*) c11
(PID.TID 0000.0001) GUD_CHECK:   31 c    (*) c12
(PID.TID 0000.0001) GUD_CHECK:   32 c    (*) c13
(PID.TID 0000.0001) GUD_CHECK:   33 c    (*) c14
(PID.TID 0000.0001) GUD_CHECK:   34 c    (*) c15
(PID.TID 0000.0001) GUD_CHECK:   35 c    (*) c16
(PID.TID 0000.0001) GUD_CHECK:   36 c    (*) c17
(PID.TID 0000.0001) GUD_CHECK:   37 c    (*) c18
(PID.TID 0000.0001) GUD_CHECK:   38 c    (*) c19
(PID.TID 0000.0001) GUD_CHECK:   39 c    (*) c20
(PID.TID 0000.0001) GUD_CHECK:   40 c    (*) c21
(PID.TID 0000.0001) GUD_CHECK:   41 c    (*) c22
(PID.TID 0000.0001) GUD_CHECK:   42 c    (*) c23
(PID.TID 0000.0001) GUD_CHECK:   43 c    (*) c24
(PID.TID 0000.0001) GUD_CHECK:   44 c    (*) c25
(PID.TID 0000.0001) GUD_CHECK:   45 c    (*) c26
(PID.TID 0000.0001) GUD_CHECK:   46 c    (*) c27
(PID.TID 0000.0001) GUD_CHECK:   47 c    (*) c28
(PID.TID 0000.0001) GUD_CHECK:   48 c    (*) c29
(PID.TID 0000.0001) GUD_CHECK:   49 c    (*) c30
(PID.TID 0000.0001) GUD_CHECK:   50 c    (*) c31
(PID.TID 0000.0001) GUD_CHECK:   51 c    (*) c32
(PID.TID 0000.0001) GUD_CHECK:   52 c    (*) c33
(PID.TID 0000.0001) GUD_CHECK:   53 c    (*) c34
(PID.TID 0000.0001) GUD_CHECK:   54 c    (*) c35
(PID.TID 0000.0001) GUD_CHECK:   55 c    (*) c36
(PID.TID 0000.0001) GUD_CHECK:   56 c    (*) c37
(PID.TID 0000.0001) GUD_CHECK:   57 c    (*) c38
(PID.TID 0000.0001) GUD_CHECK:   58 Chl  (1) Chl01
(PID.TID 0000.0001) GUD_CHECK:   59 Chl  (2) Chl02
(PID.TID 0000.0001) GUD_CHECK:   60 Chl  (3) Chl03
(PID.TID 0000.0001) GUD_CHECK:   61 Chl  (4) Chl04
(PID.TID 0000.0001) GUD_CHECK:   62 Chl  (5) Chl05
(PID.TID 0000.0001) GUD_CHECK:   63 Chl  (6) Chl06
(PID.TID 0000.0001) GUD_CHECK:   64 Chl  (7) Chl07
(PID.TID 0000.0001) GUD_CHECK:   65 Chl  (8) Chl08
(PID.TID 0000.0001) GUD_CHECK:   66 Chl  (9) Chl09
(PID.TID 0000.0001) GUD_CHECK:   67 Chl  (*) Chl10
(PID.TID 0000.0001) GUD_CHECK:   68 Chl  (*) Chl11
(PID.TID 0000.0001) GUD_CHECK:   69 Chl  (*) Chl12
(PID.TID 0000.0001) GUD_CHECK:   70 Chl  (*) Chl13
(PID.TID 0000.0001) GUD_CHECK:   71 Chl  (*) Chl14
(PID.TID 0000.0001) GUD_CHECK:   72 Chl  (*) Chl15
(PID.TID 0000.0001) GUD_CHECK:   73 Chl  (*) Chl16
(PID.TID 0000.0001) GUD_CHECK:   74 Chl  (*) Chl17
(PID.TID 0000.0001) GUD_CHECK:   75 Chl  (*) Chl18
(PID.TID 0000.0001) GUD_CHECK:   76 Chl  (*) Chl19
(PID.TID 0000.0001) GUD_CHECK:   77 Chl  (*) Chl20
(PID.TID 0000.0001) GUD_CHECK:   78 Chl  (*) Chl21
(PID.TID 0000.0001) GUD_CHECK:   79 Chl  (*) Chl22
(PID.TID 0000.0001) GUD_CHECK:   80 Chl  (*) Chl23
(PID.TID 0000.0001) GUD_CHECK:   81 Chl  (*) Chl24
(PID.TID 0000.0001) OFFLINE_CHECK: #define OFFLINE
(PID.TID 0000.0001) offlineLoadGMRedi= /* load (not compute) GMRedi tensor */
(PID.TID 0000.0001)                   T
(PID.TID 0000.0001)     ;
(PID.TID 0000.0001) offlineLoadKPP= /* load (not compute) KPP mixing coeff */
(PID.TID 0000.0001)                   T
(PID.TID 0000.0001)     ;
(PID.TID 0000.0001) offlineLoadConvec= /* load (not compute) Convect Mix */
(PID.TID 0000.0001)                   F
(PID.TID 0000.0001)     ;
(PID.TID 0000.0001) offlineIter0 = /* initial offline field timestep */
(PID.TID 0000.0001)                   78912
(PID.TID 0000.0001)     ;
(PID.TID 0000.0001) offlineOffsetIter= /* iteration number offset */
(PID.TID 0000.0001)                       0
(PID.TID 0000.0001)     ;
(PID.TID 0000.0001) offlineLoadPrec = /* precision (32,64) of offline files */
(PID.TID 0000.0001)                      32
(PID.TID 0000.0001)     ;
(PID.TID 0000.0001) deltaToffline = /* time-step to load offline files */
(PID.TID 0000.0001)                 3.600000000000000E+03
(PID.TID 0000.0001)     ;
(PID.TID 0000.0001) offlineForcingPeriod= /* time interval between reccords [s] */
(PID.TID 0000.0001)                 8.640000000000000E+04
(PID.TID 0000.0001)     ;
(PID.TID 0000.0001) offlineForcingCycle = /* length of 1 cycle [s] */
(PID.TID 0000.0001)                 3.110400000000000E+07
(PID.TID 0000.0001)     ;
(PID.TID 0000.0001) UvelFile = /* file name of loaded uVel field */
(PID.TID 0000.0001)               '/nobackup1/stephdut/ECCO_Iter3.73daily/DDuvel/DDuvel'
(PID.TID 0000.0001)     ;
(PID.TID 0000.0001) OFFLINE_CHECK: done
(PID.TID 0000.0001) GAD_CHECK: #define ALLOW_GENERIC_ADVDIFF
(PID.TID 0000.0001) // =======================================================
(PID.TID 0000.0001) // Check Model config. (CONFIG_CHECK):
(PID.TID 0000.0001) // CONFIG_CHECK : Normal End
(PID.TID 0000.0001) // =======================================================
(PID.TID 0000.0001) 
(PID.TID 0000.0001) Start initial hydrostatic pressure computation
(PID.TID 0000.0001) Pressure is predetermined for buoyancyRelation OCEANIC
(PID.TID 0000.0001) 
(PID.TID 0000.0001)  write diagnostics summary to file ioUnit:      6
Iter.Nb:         0 ; Time(s):  0.0000000000000E+00
------------------------------------------------------------------------
2D/3D diagnostics: Number of lists:     1
------------------------------------------------------------------------
listId=    1 ; file name: gud
 nFlds, nActive,       freq     &     phase        , nLev               
   85  |   85  |   2592000.000000         0.000000 |  23
 levels:   1   2   3   4   5   6   7   8   9  10  11  12  13  14  15  16  17  18  19  20  21  22  23
 diag# | name   |   ipt  |  iMate | kLev|   count |   mate.C|           
   179 |TRAC01  |      1 |      0 |  23 |       0 |
   192 |TRAC02  |     24 |      0 |  23 |       0 |
   205 |TRAC03  |     47 |      0 |  23 |       0 |
   218 |TRAC04  |     70 |      0 |  23 |       0 |
   231 |TRAC05  |     93 |      0 |  23 |       0 |
   244 |TRAC06  |    116 |      0 |  23 |       0 |
   257 |TRAC07  |    139 |      0 |  23 |       0 |
   270 |TRAC08  |    162 |      0 |  23 |       0 |
   283 |TRAC09  |    185 |      0 |  23 |       0 |
   296 |TRAC10  |    208 |      0 |  23 |       0 |
   309 |TRAC11  |    231 |      0 |  23 |       0 |
   322 |TRAC12  |    254 |      0 |  23 |       0 |
   335 |TRAC13  |    277 |      0 |  23 |       0 |
   348 |TRAC14  |    300 |      0 |  23 |       0 |
   361 |TRAC15  |    323 |      0 |  23 |       0 |
   374 |TRAC16  |    346 |      0 |  23 |       0 |
   387 |TRAC17  |    369 |      0 |  23 |       0 |
   400 |TRAC18  |    392 |      0 |  23 |       0 |
   413 |TRAC19  |    415 |      0 |  23 |       0 |
   426 |TRAC20  |    438 |      0 |  23 |       0 |
   439 |TRAC21  |    461 |      0 |  23 |       0 |
   452 |TRAC22  |    484 |      0 |  23 |       0 |
   465 |TRAC23  |    507 |      0 |  23 |       0 |
   478 |TRAC24  |    530 |      0 |  23 |       0 |
   491 |TRAC25  |    553 |      0 |  23 |       0 |
   504 |TRAC26  |    576 |      0 |  23 |       0 |
   517 |TRAC27  |    599 |      0 |  23 |       0 |
   530 |TRAC28  |    622 |      0 |  23 |       0 |
   543 |TRAC29  |    645 |      0 |  23 |       0 |
   556 |TRAC30  |    668 |      0 |  23 |       0 |
   569 |TRAC31  |    691 |      0 |  23 |       0 |
   582 |TRAC32  |    714 |      0 |  23 |       0 |
   595 |TRAC33  |    737 |      0 |  23 |       0 |
   608 |TRAC34  |    760 |      0 |  23 |       0 |
   621 |TRAC35  |    783 |      0 |  23 |       0 |
   634 |TRAC36  |    806 |      0 |  23 |       0 |
   647 |TRAC37  |    829 |      0 |  23 |       0 |
   660 |TRAC38  |    852 |      0 |  23 |       0 |
   673 |TRAC39  |    875 |      0 |  23 |       0 |
   686 |TRAC40  |    898 |      0 |  23 |       0 |
   699 |TRAC41  |    921 |      0 |  23 |       0 |
   712 |TRAC42  |    944 |      0 |  23 |       0 |
   725 |TRAC43  |    967 |      0 |  23 |       0 |
   738 |TRAC44  |    990 |      0 |  23 |       0 |
   751 |TRAC45  |   1013 |      0 |  23 |       0 |
   764 |TRAC46  |   1036 |      0 |  23 |       0 |
   777 |TRAC47  |   1059 |      0 |  23 |       0 |
   790 |TRAC48  |   1082 |      0 |  23 |       0 |
   803 |TRAC49  |   1105 |      0 |  23 |       0 |
   816 |TRAC50  |   1128 |      0 |  23 |       0 |
   829 |TRAC51  |   1151 |      0 |  23 |       0 |
   842 |TRAC52  |   1174 |      0 |  23 |       0 |
   855 |TRAC53  |   1197 |      0 |  23 |       0 |
   868 |TRAC54  |   1220 |      0 |  23 |       0 |
   881 |TRAC55  |   1243 |      0 |  23 |       0 |
   894 |TRAC56  |   1266 |      0 |  23 |       0 |
   907 |TRAC57  |   1289 |      0 |  23 |       0 |
   920 |TRAC58  |   1312 |      0 |  23 |       0 |
   933 |TRAC59  |   1335 |      0 |  23 |       0 |
   946 |TRAC60  |   1358 |      0 |  23 |       0 |
   959 |TRAC61  |   1381 |      0 |  23 |       0 |
   972 |TRAC62  |   1404 |      0 |  23 |       0 |
   985 |TRAC63  |   1427 |      0 |  23 |       0 |
   998 |TRAC64  |   1450 |      0 |  23 |       0 |
  1011 |TRAC65  |   1473 |      0 |  23 |       0 |
  1024 |TRAC66  |   1496 |      0 |  23 |       0 |
  1037 |TRAC67  |   1519 |      0 |  23 |       0 |
  1050 |TRAC68  |   1542 |      0 |  23 |       0 |
  1063 |TRAC69  |   1565 |      0 |  23 |       0 |
  1076 |TRAC70  |   1588 |      0 |  23 |       0 |
  1089 |TRAC71  |   1611 |      0 |  23 |       0 |
  1102 |TRAC72  |   1634 |      0 |  23 |       0 |
  1115 |TRAC73  |   1657 |      0 |  23 |       0 |
  1128 |TRAC74  |   1680 |      0 |  23 |       0 |
  1141 |TRAC75  |   1703 |      0 |  23 |       0 |
  1154 |TRAC76  |   1726 |      0 |  23 |       0 |
  1167 |TRAC77  |   1749 |      0 |  23 |       0 |
  1180 |TRAC78  |   1772 |      0 |  23 |       0 |
  1193 |TRAC79  |   1795 |      0 |  23 |       0 |
  1206 |TRAC80  |   1818 |      0 |  23 |       0 |
  1219 |TRAC81  |   1841 |      0 |  23 |       0 |
  1240 |PAR01   |   1864 |      0 |  23 |       0 |
  1233 |PP      |   1887 |      0 |  23 |       0 |
  1234 |Nfix    |   1910 |      0 |  23 |       0 |
  1235 |Denit   |   1933 |      0 |  23 |       0 |
------------------------------------------------------------------------
Global & Regional Statistics diagnostics: Number of lists:     3
------------------------------------------------------------------------
listId=   1 ; file name: statsPP
 nFlds, nActive,       freq     &     phase        |                    
    1  |    1  |     10800.000000         0.000000 |
 Regions:   0
 diag# | name   |   ipt  |  iMate |    Volume   |   mate-Vol. |         
  1233 |PP      |      1 |      0 | 0.00000E+00 |
------------------------------------------------------------------------
listId=   2 ; file name: statsNfix
 nFlds, nActive,       freq     &     phase        |                    
    1  |    1  |     10800.000000         0.000000 |
 Regions:   0
 diag# | name   |   ipt  |  iMate |    Volume   |   mate-Vol. |         
  1234 |Nfix    |     24 |      0 | 0.00000E+00 |
------------------------------------------------------------------------
listId=   3 ; file name: statsDenit
 nFlds, nActive,       freq     &     phase        |                    
    1  |    1  |     10800.000000         0.000000 |
 Regions:   0
 diag# | name   |   ipt  |  iMate |    Volume   |   mate-Vol. |         
  1235 |Denit   |     47 |      0 | 0.00000E+00 |
------------------------------------------------------------------------
 OFFLINE_FIELDS_LOAD, it=         0 : Reading new data, i0,i1=  360    1 (prev=  360    0 )
(PID.TID 0000.0001)  MDS_READ_FIELD: opening global file: /nobackup1/stephdut/ECCO_Iter3.73daily/DDuvel/DDuvel.0000087552.data
(PID.TID 0000.0001)  MDS_READ_FIELD: opening global file: /nobackup1/stephdut/ECCO_Iter3.73daily/DDuvel/DDuvel.0000078936.data
(PID.TID 0000.0001)  MDS_READ_FIELD: opening global file: /nobackup1/stephdut/ECCO_Iter3.73daily/DDvvel/DDvvel.0000087552.data
(PID.TID 0000.0001)  MDS_READ_FIELD: opening global file: /nobackup1/stephdut/ECCO_Iter3.73daily/DDvvel/DDvvel.0000078936.data
(PID.TID 0000.0001)  MDS_READ_FIELD: opening global file: /nobackup1/stephdut/ECCO_Iter3.73daily/DDwvel/DDwvel.0000087552.data
(PID.TID 0000.0001)  MDS_READ_FIELD: opening global file: /nobackup1/stephdut/ECCO_Iter3.73daily/DDwvel/DDwvel.0000078936.data
(PID.TID 0000.0001)  MDS_READ_FIELD: opening global file: /nobackup1/stephdut/ECCO_Iter3.73daily/DDtheta/DDtheta.0000087552.data
(PID.TID 0000.0001)  MDS_READ_FIELD: opening global file: /nobackup1/stephdut/ECCO_Iter3.73daily/DDtheta/DDtheta.0000078936.data
(PID.TID 0000.0001)  MDS_READ_FIELD: opening global file: /nobackup1/stephdut/ECCO_Iter3.73daily/DDsalt/DDsalt.0000087552.data
(PID.TID 0000.0001)  MDS_READ_FIELD: opening global file: /nobackup1/stephdut/ECCO_Iter3.73daily/DDsalt/DDsalt.0000078936.data
(PID.TID 0000.0001)  MDS_READ_FIELD: opening global file: /nobackup1/stephdut/ECCO_Iter3.73daily/DGMkwx/DGMkwx.0000087552.data
(PID.TID 0000.0001)  MDS_READ_FIELD: opening global file: /nobackup1/stephdut/ECCO_Iter3.73daily/DGMkwx/DGMkwx.0000078936.data
(PID.TID 0000.0001)  MDS_READ_FIELD: opening global file: /nobackup1/stephdut/ECCO_Iter3.73daily/DGMkwy/DGMkwy.0000087552.data
(PID.TID 0000.0001)  MDS_READ_FIELD: opening global file: /nobackup1/stephdut/ECCO_Iter3.73daily/DGMkwy/DGMkwy.0000078936.data
(PID.TID 0000.0001)  MDS_READ_FIELD: opening global file: /nobackup1/stephdut/ECCO_Iter3.73daily/DGMkwz/DGMkwz.0000087552.data
(PID.TID 0000.0001)  MDS_READ_FIELD: opening global file: /nobackup1/stephdut/ECCO_Iter3.73daily/DGMkwz/DGMkwz.0000078936.data
(PID.TID 0000.0001)  MDS_READ_FIELD: opening global file: /nobackup1/stephdut/ECCO_Iter3.73daily/DKPPdiffs/DKPPdiffs.0000087552.data
(PID.TID 0000.0001)  MDS_READ_FIELD: opening global file: /nobackup1/stephdut/ECCO_Iter3.73daily/DKPPdiffs/DKPPdiffs.0000078936.data
(PID.TID 0000.0001)  MDS_READ_FIELD: opening global file: /nobackup1/stephdut/ECCO_Iter3.73daily/DKPPghatK/DKPPghatK.0000087552.data
(PID.TID 0000.0001)  MDS_READ_FIELD: opening global file: /nobackup1/stephdut/ECCO_Iter3.73daily/DKPPghatK/DKPPghatK.0000078936.data
(PID.TID 0000.0001)  MDS_READ_FIELD: opening global file: /nobackup1/stephdut/ECCO_Iter3.73daily/DFOSflux/DFOSflux.0000087552.data
(PID.TID 0000.0001)  MDS_READ_FIELD: opening global file: /nobackup1/stephdut/ECCO_Iter3.73daily/DFOSflux/DFOSflux.0000078936.data
(PID.TID 0000.0001)  MDS_READ_FIELD: opening global file: ../../../input/eccov3_R8/glodap_tco2_ann-3d.bin
(PID.TID 0000.0001)  MDS_READ_FIELD: opening global file: ../../../input/DARWIN_ECCO_run17_R8/nh4_y2000.data
(PID.TID 0000.0001)  MDS_READ_FIELD: opening global file: ../../../input/DARWIN_ECCO_run17_R8/no2_y2000.data
(PID.TID 0000.0001)  MDS_READ_FIELD: opening global file: ../../../input/eccov3_R8/lev01_nitrate_ann-3d.bin
(PID.TID 0000.0001)  MDS_READ_FIELD: opening global file: ../../../input/eccov3_R8/lev01_phosphate_ann-3d.bin
(PID.TID 0000.0001)  MDS_READ_FIELD: opening global file: ../../../input/eccov3_R8/lev01_silicate_ann-3d.bin
(PID.TID 0000.0001)  MDS_READ_FIELD: opening global file: ../../../input/DARWIN_ECCO_run17_R8/fet_y2000.data
(PID.TID 0000.0001)  MDS_READ_FIELD: opening global file: ../../../input/DARWIN_ECCO_run17_R8/doc_y2000.data
(PID.TID 0000.0001)  MDS_READ_FIELD: opening global file: ../../../input/DARWIN_ECCO_run17_R8/don_y2000.data
(PID.TID 0000.0001)  MDS_READ_FIELD: opening global file: ../../../input/DARWIN_ECCO_run17_R8/dop_y2000.data
(PID.TID 0000.0001)  MDS_READ_FIELD: opening global file: ../../../input/DARWIN_ECCO_run17_R8/dofe_y2000.data
(PID.TID 0000.0001)  MDS_READ_FIELD: opening global file: ../../../input/DARWIN_ECCO_run17_R8/poc_y2000.data
(PID.TID 0000.0001)  MDS_READ_FIELD: opening global file: ../../../input/DARWIN_ECCO_run17_R8/pon_y2000.data
(PID.TID 0000.0001)  MDS_READ_FIELD: opening global file: ../../../input/DARWIN_ECCO_run17_R8/pop_y2000.data
(PID.TID 0000.0001)  MDS_READ_FIELD: opening global file: ../../../input/DARWIN_ECCO_run17_R8/posi_y2000.data
(PID.TID 0000.0001)  MDS_READ_FIELD: opening global file: ../../../input/DARWIN_ECCO_run17_R8/pofe_y2000.data
(PID.TID 0000.0001)  MDS_READ_FIELD: opening global file: ../../../input/DARWIN_ECCO_run17_R8/pic_y2000.data
(PID.TID 0000.0001)  MDS_READ_FIELD: opening global file: ../../../input/eccov3_R8/glodap_alk_ann-3d.bin
(PID.TID 0000.0001)  MDS_READ_FIELD: opening global file: ../../../input/eccov3_R8/lev01_oxygen_micromolar_ann-3d.bin
(PID.TID 0000.0001)  MDS_READ_FIELD: opening global file: ../../../input/eccov3_R8/phy78_x120_lev01.bin
(PID.TID 0000.0001)  MDS_READ_FIELD: opening global file: ../../../input/eccov3_R8/phy78_x120_lev01.bin
(PID.TID 0000.0001)  MDS_READ_FIELD: opening global file: ../../../input/eccov3_R8/phy78_x120_lev01.bin
(PID.TID 0000.0001)  MDS_READ_FIELD: opening global file: ../../../input/eccov3_R8/phy78_x120_lev01.bin
(PID.TID 0000.0001)  MDS_READ_FIELD: opening global file: ../../../input/eccov3_R8/phy78_x120_lev01.bin
(PID.TID 0000.0001)  MDS_READ_FIELD: opening global file: ../../../input/eccov3_R8/phy78_x120_lev01.bin
(PID.TID 0000.0001)  MDS_READ_FIELD: opening global file: ../../../input/eccov3_R8/phy78_x120_lev01.bin
(PID.TID 0000.0001)  MDS_READ_FIELD: opening global file: ../../../input/eccov3_R8/phy78_x120_lev01.bin
(PID.TID 0000.0001)  MDS_READ_FIELD: opening global file: ../../../input/eccov3_R8/phy78_x120_lev01.bin
(PID.TID 0000.0001)  MDS_READ_FIELD: opening global file: ../../../input/eccov3_R8/phy78_x120_lev01.bin
(PID.TID 0000.0001)  MDS_READ_FIELD: opening global file: ../../../input/eccov3_R8/phy78_x120_lev01.bin
(PID.TID 0000.0001)  MDS_READ_FIELD: opening global file: ../../../input/eccov3_R8/phy78_x120_lev01.bin
(PID.TID 0000.0001)  MDS_READ_FIELD: opening global file: ../../../input/eccov3_R8/phy78_x120_lev01.bin
(PID.TID 0000.0001)  MDS_READ_FIELD: opening global file: ../../../input/eccov3_R8/phy78_x120_lev01.bin
(PID.TID 0000.0001)  MDS_READ_FIELD: opening global file: ../../../input/eccov3_R8/phy78_x120_lev01.bin
(PID.TID 0000.0001)  MDS_READ_FIELD: opening global file: ../../../input/eccov3_R8/phy78_x120_lev01.bin
(PID.TID 0000.0001)  MDS_READ_FIELD: opening global file: ../../../input/eccov3_R8/phy78_x120_lev01.bin
(PID.TID 0000.0001)  MDS_READ_FIELD: opening global file: ../../../input/eccov3_R8/phy78_x120_lev01.bin
(PID.TID 0000.0001)  MDS_READ_FIELD: opening global file: ../../../input/eccov3_R8/phy78_x120_lev01.bin
(PID.TID 0000.0001)  MDS_READ_FIELD: opening global file: ../../../input/eccov3_R8/phy78_x120_lev01.bin
(PID.TID 0000.0001)  MDS_READ_FIELD: opening global file: ../../../input/eccov3_R8/phy78_x120_lev01.bin
(PID.TID 0000.0001)  MDS_READ_FIELD: opening global file: ../../../input/eccov3_R8/phy78_x120_lev01.bin
(PID.TID 0000.0001)  MDS_READ_FIELD: opening global file: ../../../input/eccov3_R8/phy78_x120_lev01.bin
(PID.TID 0000.0001)  MDS_READ_FIELD: opening global file: ../../../input/eccov3_R8/phy78_x120_lev01.bin
(PID.TID 0000.0001)  MDS_READ_FIELD: opening global file: ../../../input/eccov3_R8/phy78_x120_lev01.bin
(PID.TID 0000.0001)  MDS_READ_FIELD: opening global file: ../../../input/eccov3_R8/phy78_x120_lev01.bin
(PID.TID 0000.0001)  MDS_READ_FIELD: opening global file: ../../../input/eccov3_R8/phy78_x120_lev01.bin
(PID.TID 0000.0001)  MDS_READ_FIELD: opening global file: ../../../input/eccov3_R8/phy78_x120_lev01.bin
(PID.TID 0000.0001)  MDS_READ_FIELD: opening global file: ../../../input/eccov3_R8/phy78_x120_lev01.bin
(PID.TID 0000.0001)  MDS_READ_FIELD: opening global file: ../../../input/eccov3_R8/phy78_x120_lev01.bin
(PID.TID 0000.0001)  MDS_READ_FIELD: opening global file: ../../../input/eccov3_R8/phy78_x120_lev01.bin
(PID.TID 0000.0001)  MDS_READ_FIELD: opening global file: ../../../input/eccov3_R8/phy78_x120_lev01.bin
(PID.TID 0000.0001)  MDS_READ_FIELD: opening global file: ../../../input/eccov3_R8/phy78_x120_lev01.bin
(PID.TID 0000.0001)  MDS_READ_FIELD: opening global file: ../../../input/eccov3_R8/phy78_x120_lev01.bin
(PID.TID 0000.0001)  MDS_READ_FIELD: opening global file: ../../../input/eccov3_R8/phy78_x120_lev01.bin
(PID.TID 0000.0001)  MDS_READ_FIELD: opening global file: ../../../input/eccov3_R8/phy78_x120_lev01.bin
(PID.TID 0000.0001)  MDS_READ_FIELD: opening global file: ../../../input/eccov3_R8/phy78_x120_lev01.bin
(PID.TID 0000.0001)  MDS_READ_FIELD: opening global file: ../../../input/eccov3_R8/phy78_x120_lev01.bin
(PID.TID 0000.0001)  MDS_READ_FIELD: opening global file: /home/stephdut/Input/input_ecco/ecco_oasim_total_below_oneband_einm2d.bin
(PID.TID 0000.0001)  MDS_READ_FIELD: opening global file: /home/stephdut/Input/input_ecco/ecco_oasim_total_below_oneband_einm2d.bin
(PID.TID 0000.0001)  MDS_READ_FIELD: opening global file: /home/stephdut/Input/input_ecco/mahowald2009_solubile_current_smooth_oce_mth-2d.bin
(PID.TID 0000.0001)  MDS_READ_FIELD: opening global file: /home/stephdut/Input/input_ecco/mahowald2009_solubile_current_smooth_oce_mth-2d.bin
(PID.TID 0000.0001)  MDS_READ_FIELD: opening global file: ../../../input/eccov3/SIarea.bin
(PID.TID 0000.0001)  MDS_READ_FIELD: opening global file: ../../../input/eccov3/SIarea.bin
(PID.TID 0000.0001)  MDS_READ_FIELD: opening global file: ../../../input/eccov3/tren_speed_mth-2d.bin
(PID.TID 0000.0001)  MDS_READ_FIELD: opening global file: ../../../input/eccov3/tren_speed_mth-2d.bin
(PID.TID 0000.0001) // =======================================================
(PID.TID 0000.0001) // Model current state
(PID.TID 0000.0001) // =======================================================
(PID.TID 0000.0001) 
(PID.TID 0000.0001) // =======================================================
(PID.TID 0000.0001) // Begin MONITOR dynamic field statistics
(PID.TID 0000.0001) // =======================================================
(PID.TID 0000.0001) %MON time_tsnumber                =                     0
(PID.TID 0000.0001) %MON time_secondsf                =   0.0000000000000000E+00
(PID.TID 0000.0001) %MON dynstat_eta_max              =   0.0000000000000000E+00
(PID.TID 0000.0001) %MON dynstat_eta_min              =   0.0000000000000000E+00
(PID.TID 0000.0001) %MON dynstat_eta_mean             =   0.0000000000000000E+00
(PID.TID 0000.0001) %MON dynstat_eta_sd               =   0.0000000000000000E+00
(PID.TID 0000.0001) %MON dynstat_eta_del2             =   0.0000000000000000E+00
(PID.TID 0000.0001) %MON dynstat_uvel_max             =   7.5098115205764771E-01
(PID.TID 0000.0001) %MON dynstat_uvel_min             =  -8.5988894104957581E-01
(PID.TID 0000.0001) %MON dynstat_uvel_mean            =   2.3572816524444476E-03
(PID.TID 0000.0001) %MON dynstat_uvel_sd              =   2.2920832952052075E-02
(PID.TID 0000.0001) %MON dynstat_uvel_del2            =   2.5380623508417271E-05
(PID.TID 0000.0001) %MON dynstat_vvel_max             =   1.4433979988098145E+00
(PID.TID 0000.0001) %MON dynstat_vvel_min             =  -7.9056510329246521E-01
(PID.TID 0000.0001) %MON dynstat_vvel_mean            =  -1.9003223157283906E-05
(PID.TID 0000.0001) %MON dynstat_vvel_sd              =   1.1606396696779764E-02
(PID.TID 0000.0001) %MON dynstat_vvel_del2            =   2.3903080664409944E-05
(PID.TID 0000.0001) %MON dynstat_wvel_max             =   4.0098185531362457E-04
(PID.TID 0000.0001) %MON dynstat_wvel_min             =  -6.1701978098626037E-04
(PID.TID 0000.0001) %MON dynstat_wvel_mean            =   3.9780657816560744E-23
(PID.TID 0000.0001) %MON dynstat_wvel_sd              =   1.0036396664253446E-05
(PID.TID 0000.0001) %MON dynstat_wvel_del2            =   1.8497991102997157E-08
(PID.TID 0000.0001) %MON dynstat_theta_max            =   3.1759957313537598E+01
(PID.TID 0000.0001) %MON dynstat_theta_min            =  -2.6781991720199585E+00
(PID.TID 0000.0001) %MON dynstat_theta_mean           =   3.6072900423544030E+00
(PID.TID 0000.0001) %MON dynstat_theta_sd             =   4.4541205956314647E+00
(PID.TID 0000.0001) %MON dynstat_theta_del2           =   3.5727313459856381E-04
(PID.TID 0000.0001) %MON dynstat_salt_max             =   3.9536773681640625E+01
(PID.TID 0000.0001) %MON dynstat_salt_min             =   2.6413101196289062E+01
(PID.TID 0000.0001) %MON dynstat_salt_mean            =   3.4722225910308687E+01
(PID.TID 0000.0001) %MON dynstat_salt_sd              =   3.6521486169891076E-01
(PID.TID 0000.0001) %MON dynstat_salt_del2            =   6.8647712204606049E-05
(PID.TID 0000.0001) %MON dynstat_sst_max              =   3.1759957313537598E+01
(PID.TID 0000.0001) %MON dynstat_sst_min              =  -1.9927841424942017E+00
(PID.TID 0000.0001) %MON dynstat_sst_mean             =   1.9180627039434452E+01
(PID.TID 0000.0001) %MON dynstat_sst_sd               =   9.5507126256378854E+00
(PID.TID 0000.0001) %MON dynstat_sst_del2             =   2.1359256876322822E-03
(PID.TID 0000.0001) %MON dynstat_sss_max              =   3.9536773681640625E+01
(PID.TID 0000.0001) %MON dynstat_sss_min              =   2.6413101196289062E+01
(PID.TID 0000.0001) %MON dynstat_sss_mean             =   3.4862233940638127E+01
(PID.TID 0000.0001) %MON dynstat_sss_sd               =   1.0826450093342124E+00
(PID.TID 0000.0001) %MON dynstat_sss_del2             =   5.9710833084477015E-04
(PID.TID 0000.0001) %MON forcing_qnet_max             =   0.0000000000000000E+00
(PID.TID 0000.0001) %MON forcing_qnet_min             =   0.0000000000000000E+00
(PID.TID 0000.0001) %MON forcing_qnet_mean            =   0.0000000000000000E+00
(PID.TID 0000.0001) %MON forcing_qnet_sd              =   0.0000000000000000E+00
(PID.TID 0000.0001) %MON forcing_qnet_del2            =   0.0000000000000000E+00
(PID.TID 0000.0001) %MON forcing_qsw_max              =   0.0000000000000000E+00
(PID.TID 0000.0001) %MON forcing_qsw_min              =   0.0000000000000000E+00
(PID.TID 0000.0001) %MON forcing_qsw_mean             =   0.0000000000000000E+00
(PID.TID 0000.0001) %MON forcing_qsw_sd               =   0.0000000000000000E+00
(PID.TID 0000.0001) %MON forcing_qsw_del2             =   0.0000000000000000E+00
(PID.TID 0000.0001) %MON forcing_empmr_max            =   0.0000000000000000E+00
(PID.TID 0000.0001) %MON forcing_empmr_min            =   0.0000000000000000E+00
(PID.TID 0000.0001) %MON forcing_empmr_mean           =   0.0000000000000000E+00
(PID.TID 0000.0001) %MON forcing_empmr_sd             =   0.0000000000000000E+00
(PID.TID 0000.0001) %MON forcing_empmr_del2           =   0.0000000000000000E+00
(PID.TID 0000.0001) %MON forcing_fu_max               =   0.0000000000000000E+00
(PID.TID 0000.0001) %MON forcing_fu_min               =   0.0000000000000000E+00
(PID.TID 0000.0001) %MON forcing_fu_mean              =   0.0000000000000000E+00
(PID.TID 0000.0001) %MON forcing_fu_sd                =   0.0000000000000000E+00
(PID.TID 0000.0001) %MON forcing_fu_del2              =   0.0000000000000000E+00
(PID.TID 0000.0001) %MON forcing_fv_max               =   0.0000000000000000E+00
(PID.TID 0000.0001) %MON forcing_fv_min               =   0.0000000000000000E+00
(PID.TID 0000.0001) %MON forcing_fv_mean              =   0.0000000000000000E+00
(PID.TID 0000.0001) %MON forcing_fv_sd                =   0.0000000000000000E+00
(PID.TID 0000.0001) %MON forcing_fv_del2              =   0.0000000000000000E+00
(PID.TID 0000.0001) %MON advcfl_uvel_max              =   1.4092930500925430E-01
(PID.TID 0000.0001) %MON advcfl_vvel_max              =   1.4021454092399671E-01
(PID.TID 0000.0001) %MON advcfl_wvel_max              =   1.9247129055053980E-01
(PID.TID 0000.0001) %MON advcfl_W_hf_max              =   2.1653020186935726E-01
(PID.TID 0000.0001) %MON pe_b_mean                    =   0.0000000000000000E+00
(PID.TID 0000.0001) %MON ke_max                       =   8.2762730601178824E-01
(PID.TID 0000.0001) %MON ke_mean                      =   3.1922519158178876E-04
(PID.TID 0000.0001) %MON ke_vol                       =   1.3258927395735470E+18
(PID.TID 0000.0001) %MON vort_r_min                   =  -1.4668072202507861E-05
(PID.TID 0000.0001) %MON vort_r_max                   =   2.0065492707288839E-05
(PID.TID 0000.0001) %MON vort_a_mean                  =  -2.1443554588587620E-05
(PID.TID 0000.0001) %MON vort_a_sd                    =   7.3250404447070092E-05
(PID.TID 0000.0001) %MON vort_p_mean                  =  -2.3136237641927041E-05
(PID.TID 0000.0001) %MON vort_p_sd                    =   8.5528229257188847E-05
(PID.TID 0000.0001) %MON surfExpan_theta_mean         =  -2.8535364658049071E-08
(PID.TID 0000.0001) %MON surfExpan_salt_mean          =   6.2495878354352634E-09
(PID.TID 0000.0001) // =======================================================
(PID.TID 0000.0001) // End MONITOR dynamic field statistics
(PID.TID 0000.0001) // =======================================================
(PID.TID 0000.0001) // =======================================================
(PID.TID 0000.0001) // Begin MONITOR ptracer field statistics
(PID.TID 0000.0001) // =======================================================
(PID.TID 0000.0001) %MON trcstat_ptracer01_max        =   2.4045053710937500E+03
(PID.TID 0000.0001) %MON trcstat_ptracer01_min        =   1.8447468261718750E+03
(PID.TID 0000.0001) %MON trcstat_ptracer01_mean       =   2.2546511133210902E+03
(PID.TID 0000.0001) %MON trcstat_ptracer01_sd         =   7.8604066256245815E+01
(PID.TID 0000.0001) %MON trcstat_ptracer01_del2       =   3.9262003901801082E-03
(PID.TID 0000.0001) %MON trcstat_ptracer02_max        =   2.1473145484924316E+00
(PID.TID 0000.0001) %MON trcstat_ptracer02_min        =   0.0000000000000000E+00
(PID.TID 0000.0001) %MON trcstat_ptracer02_mean       =   1.7878254181650142E-03
(PID.TID 0000.0001) %MON trcstat_ptracer02_sd         =   1.7653973158591484E-02
(PID.TID 0000.0001) %MON trcstat_ptracer02_del2       =   2.9430656499239687E-05
(PID.TID 0000.0001) %MON trcstat_ptracer03_max        =   3.0563504695892334E+00
(PID.TID 0000.0001) %MON trcstat_ptracer03_min        =   0.0000000000000000E+00
(PID.TID 0000.0001) %MON trcstat_ptracer03_mean       =   5.7961331288018470E-03
(PID.TID 0000.0001) %MON trcstat_ptracer03_sd         =   2.4359042585841796E-02
(PID.TID 0000.0001) %MON trcstat_ptracer03_del2       =   2.8668420848971846E-05
(PID.TID 0000.0001) %MON trcstat_ptracer04_max        =   5.0805999755859375E+01
(PID.TID 0000.0001) %MON trcstat_ptracer04_min        =   0.0000000000000000E+00
(PID.TID 0000.0001) %MON trcstat_ptracer04_mean       =   3.1007748186856976E+01
(PID.TID 0000.0001) %MON trcstat_ptracer04_sd         =   9.0069814942232433E+00
(PID.TID 0000.0001) %MON trcstat_ptracer04_del2       =   4.1808295359022492E-04
(PID.TID 0000.0001) %MON trcstat_ptracer05_max        =   3.7955999374389648E+00
(PID.TID 0000.0001) %MON trcstat_ptracer05_min        =   1.8349999561905861E-02
(PID.TID 0000.0001) %MON trcstat_ptracer05_mean       =   2.1762246804590668E+00
(PID.TID 0000.0001) %MON trcstat_ptracer05_sd         =   6.4459510567978162E-01
(PID.TID 0000.0001) %MON trcstat_ptracer05_del2       =   3.0215703479517614E-05
(PID.TID 0000.0001) %MON trcstat_ptracer06_max        =   2.6071920776367188E+02
(PID.TID 0000.0001) %MON trcstat_ptracer06_min        =   2.6660001277923584E-01
(PID.TID 0000.0001) %MON trcstat_ptracer06_mean       =   9.0810285891869214E+01
(PID.TID 0000.0001) %MON trcstat_ptracer06_sd         =   5.2140692528741269E+01
(PID.TID 0000.0001) %MON trcstat_ptracer06_del2       =   1.0736370675107300E-03
(PID.TID 0000.0001) %MON trcstat_ptracer07_max        =   1.0973453754559159E-03
(PID.TID 0000.0001) %MON trcstat_ptracer07_min        =   8.5315150499809533E-08
(PID.TID 0000.0001) %MON trcstat_ptracer07_mean       =   6.2097937023548302E-04
(PID.TID 0000.0001) %MON trcstat_ptracer07_sd         =   1.7824495500005848E-04
(PID.TID 0000.0001) %MON trcstat_ptracer07_del2       =   5.9702043405947195E-08
(PID.TID 0000.0001) %MON trcstat_ptracer08_max        =   5.2150821685791016E+01
(PID.TID 0000.0001) %MON trcstat_ptracer08_min        =   0.0000000000000000E+00
(PID.TID 0000.0001) %MON trcstat_ptracer08_mean       =   2.2654830117271216E-01
(PID.TID 0000.0001) %MON trcstat_ptracer08_sd         =   1.3294410751238774E+00
(PID.TID 0000.0001) %MON trcstat_ptracer08_del2       =   1.2089004439327124E-03
(PID.TID 0000.0001) %MON trcstat_ptracer09_max        =   7.3542504310607910E+00
(PID.TID 0000.0001) %MON trcstat_ptracer09_min        =   0.0000000000000000E+00
(PID.TID 0000.0001) %MON trcstat_ptracer09_mean       =   3.0421231593559951E-02
(PID.TID 0000.0001) %MON trcstat_ptracer09_sd         =   1.7896393902940957E-01
(PID.TID 0000.0001) %MON trcstat_ptracer09_del2       =   1.6340293848548189E-04
(PID.TID 0000.0001) %MON trcstat_ptracer10_max        =   4.3459019064903259E-01
(PID.TID 0000.0001) %MON trcstat_ptracer10_min        =   0.0000000000000000E+00
(PID.TID 0000.0001) %MON trcstat_ptracer10_mean       =   1.8879025105832834E-03
(PID.TID 0000.0001) %MON trcstat_ptracer10_sd         =   1.1078675624033375E-02
(PID.TID 0000.0001) %MON trcstat_ptracer10_del2       =   1.0074170451943301E-05
(PID.TID 0000.0001) %MON trcstat_ptracer11_max        =   5.1011529285460711E-04
(PID.TID 0000.0001) %MON trcstat_ptracer11_min        =   0.0000000000000000E+00
(PID.TID 0000.0001) %MON trcstat_ptracer11_mean       =   1.9147509467272951E-06
(PID.TID 0000.0001) %MON trcstat_ptracer11_sd         =   1.1298617331297036E-05
(PID.TID 0000.0001) %MON trcstat_ptracer11_del2       =   1.0393917225635487E-08
(PID.TID 0000.0001) %MON trcstat_ptracer12_max        =   1.3374876708984375E+03
(PID.TID 0000.0001) %MON trcstat_ptracer12_min        =   9.8712036560755223E-05
(PID.TID 0000.0001) %MON trcstat_ptracer12_mean       =   1.6679800505718198E-01
(PID.TID 0000.0001) %MON trcstat_ptracer12_sd         =   2.3140507420659602E+00
(PID.TID 0000.0001) %MON trcstat_ptracer12_del2       =   9.0290015896466738E-04
(PID.TID 0000.0001) %MON trcstat_ptracer13_max        =   1.8887759399414062E+02
(PID.TID 0000.0001) %MON trcstat_ptracer13_min        =   1.3161638889869209E-05
(PID.TID 0000.0001) %MON trcstat_ptracer13_mean       =   2.2580230339504570E-02
(PID.TID 0000.0001) %MON trcstat_ptracer13_sd         =   3.2937017509847416E-01
(PID.TID 0000.0001) %MON trcstat_ptracer13_del2       =   1.2407798871005431E-04
(PID.TID 0000.0001) %MON trcstat_ptracer14_max        =   1.1147537231445312E+01
(PID.TID 0000.0001) %MON trcstat_ptracer14_min        =   8.2260032741032774E-07
(PID.TID 0000.0001) %MON trcstat_ptracer14_mean       =   1.3899874965366593E-03
(PID.TID 0000.0001) %MON trcstat_ptracer14_sd         =   1.9285430202733121E-02
(PID.TID 0000.0001) %MON trcstat_ptracer14_del2       =   7.5241677900337908E-06
(PID.TID 0000.0001) %MON trcstat_ptracer15_max        =   1.2251813507080078E+02
(PID.TID 0000.0001) %MON trcstat_ptracer15_min        =   2.0135115796904302E-10
(PID.TID 0000.0001) %MON trcstat_ptracer15_mean       =   1.3529984097408637E-01
(PID.TID 0000.0001) %MON trcstat_ptracer15_sd         =   3.9868839801938777E-01
(PID.TID 0000.0001) %MON trcstat_ptracer15_del2       =   2.6991399899127695E-04
(PID.TID 0000.0001) %MON trcstat_ptracer16_max        =   1.2462104670703411E-02
(PID.TID 0000.0001) %MON trcstat_ptracer16_min        =   8.2260454004057237E-10
(PID.TID 0000.0001) %MON trcstat_ptracer16_mean       =   1.4325415350334051E-06
(PID.TID 0000.0001) %MON trcstat_ptracer16_sd         =   2.1898173795242564E-05
(PID.TID 0000.0001) %MON trcstat_ptracer16_del2       =   8.0119603653321275E-09
(PID.TID 0000.0001) %MON trcstat_ptracer17_max        =   4.0100973510742188E+02
(PID.TID 0000.0001) %MON trcstat_ptracer17_min        =   3.7098484007014321E-11
(PID.TID 0000.0001) %MON trcstat_ptracer17_mean       =   2.2843515702326289E-01
(PID.TID 0000.0001) %MON trcstat_ptracer17_sd         =   1.0041813539550082E+00
(PID.TID 0000.0001) %MON trcstat_ptracer17_del2       =   1.5542139979837992E-03
(PID.TID 0000.0001) %MON trcstat_ptracer18_max        =   2.4566696777343750E+03
(PID.TID 0000.0001) %MON trcstat_ptracer18_min        =   2.1775778808593750E+03
(PID.TID 0000.0001) %MON trcstat_ptracer18_mean       =   2.3632510240441352E+03
(PID.TID 0000.0001) %MON trcstat_ptracer18_sd         =   4.2543179541816642E+01
(PID.TID 0000.0001) %MON trcstat_ptracer18_del2       =   1.7312321893748516E-03
(PID.TID 0000.0001) %MON trcstat_ptracer19_max        =   4.0677526855468750E+02
(PID.TID 0000.0001) %MON trcstat_ptracer19_min        =   3.1105408668518066E+00
(PID.TID 0000.0001) %MON trcstat_ptracer19_mean       =   1.7469074739563700E+02
(PID.TID 0000.0001) %MON trcstat_ptracer19_sd         =   6.2920692065089490E+01
(PID.TID 0000.0001) %MON trcstat_ptracer19_del2       =   2.8634443546817255E-03
(PID.TID 0000.0001) %MON trcstat_ptracer20_max        =   8.3083614706993103E-01
(PID.TID 0000.0001) %MON trcstat_ptracer20_min        =   0.0000000000000000E+00
(PID.TID 0000.0001) %MON trcstat_ptracer20_mean       =   1.1068510621796922E-03
(PID.TID 0000.0001) %MON trcstat_ptracer20_sd         =   9.5066171728477762E-03
(PID.TID 0000.0001) %MON trcstat_ptracer20_del2       =   9.8226151386868822E-06
(PID.TID 0000.0001) %MON trcstat_ptracer21_max        =   8.3083614706993103E-01
(PID.TID 0000.0001) %MON trcstat_ptracer21_min        =   0.0000000000000000E+00
(PID.TID 0000.0001) %MON trcstat_ptracer21_mean       =   1.1068510621796922E-03
(PID.TID 0000.0001) %MON trcstat_ptracer21_sd         =   9.5066171728477762E-03
(PID.TID 0000.0001) %MON trcstat_ptracer21_del2       =   9.8226151386868822E-06
(PID.TID 0000.0001) %MON trcstat_ptracer22_max        =   8.3083614706993103E-01
(PID.TID 0000.0001) %MON trcstat_ptracer22_min        =   0.0000000000000000E+00
(PID.TID 0000.0001) %MON trcstat_ptracer22_mean       =   1.1068510621796922E-03
(PID.TID 0000.0001) %MON trcstat_ptracer22_sd         =   9.5066171728477762E-03
(PID.TID 0000.0001) %MON trcstat_ptracer22_del2       =   9.8226151386868822E-06
(PID.TID 0000.0001) %MON trcstat_ptracer23_max        =   8.3083614706993103E-01
(PID.TID 0000.0001) %MON trcstat_ptracer23_min        =   0.0000000000000000E+00
(PID.TID 0000.0001) %MON trcstat_ptracer23_mean       =   1.1068510621796922E-03
(PID.TID 0000.0001) %MON trcstat_ptracer23_sd         =   9.5066171728477762E-03
(PID.TID 0000.0001) %MON trcstat_ptracer23_del2       =   9.8226151386868822E-06
(PID.TID 0000.0001) %MON trcstat_ptracer24_max        =   8.3083614706993103E-02
(PID.TID 0000.0001) %MON trcstat_ptracer24_min        =   0.0000000000000000E+00
(PID.TID 0000.0001) %MON trcstat_ptracer24_mean       =   1.1068510621797086E-04
(PID.TID 0000.0001) %MON trcstat_ptracer24_sd         =   9.5066171728479503E-04
(PID.TID 0000.0001) %MON trcstat_ptracer24_del2       =   9.8226151386869237E-07
(PID.TID 0000.0001) %MON trcstat_ptracer25_max        =   8.3083614706993103E-01
(PID.TID 0000.0001) %MON trcstat_ptracer25_min        =   0.0000000000000000E+00
(PID.TID 0000.0001) %MON trcstat_ptracer25_mean       =   1.1068510621796922E-03
(PID.TID 0000.0001) %MON trcstat_ptracer25_sd         =   9.5066171728477762E-03
(PID.TID 0000.0001) %MON trcstat_ptracer25_del2       =   9.8226151386868822E-06
(PID.TID 0000.0001) %MON trcstat_ptracer26_max        =   8.3083614706993103E-01
(PID.TID 0000.0001) %MON trcstat_ptracer26_min        =   0.0000000000000000E+00
(PID.TID 0000.0001) %MON trcstat_ptracer26_mean       =   1.1068510621796922E-03
(PID.TID 0000.0001) %MON trcstat_ptracer26_sd         =   9.5066171728477762E-03
(PID.TID 0000.0001) %MON trcstat_ptracer26_del2       =   9.8226151386868822E-06
(PID.TID 0000.0001) %MON trcstat_ptracer27_max        =   8.3083614706993103E-02
(PID.TID 0000.0001) %MON trcstat_ptracer27_min        =   0.0000000000000000E+00
(PID.TID 0000.0001) %MON trcstat_ptracer27_mean       =   1.1068510621797086E-04
(PID.TID 0000.0001) %MON trcstat_ptracer27_sd         =   9.5066171728479503E-04
(PID.TID 0000.0001) %MON trcstat_ptracer27_del2       =   9.8226151386869237E-07
(PID.TID 0000.0001) %MON trcstat_ptracer28_max        =   8.3083614706993103E-01
(PID.TID 0000.0001) %MON trcstat_ptracer28_min        =   0.0000000000000000E+00
(PID.TID 0000.0001) %MON trcstat_ptracer28_mean       =   1.1068510621796922E-03
(PID.TID 0000.0001) %MON trcstat_ptracer28_sd         =   9.5066171728477762E-03
(PID.TID 0000.0001) %MON trcstat_ptracer28_del2       =   9.8226151386868822E-06
(PID.TID 0000.0001) %MON trcstat_ptracer29_max        =   8.3083614706993103E-01
(PID.TID 0000.0001) %MON trcstat_ptracer29_min        =   0.0000000000000000E+00
(PID.TID 0000.0001) %MON trcstat_ptracer29_mean       =   1.1068510621796922E-03
(PID.TID 0000.0001) %MON trcstat_ptracer29_sd         =   9.5066171728477762E-03
(PID.TID 0000.0001) %MON trcstat_ptracer29_del2       =   9.8226151386868822E-06
(PID.TID 0000.0001) %MON trcstat_ptracer30_max        =   8.3083614706993103E-02
(PID.TID 0000.0001) %MON trcstat_ptracer30_min        =   0.0000000000000000E+00
(PID.TID 0000.0001) %MON trcstat_ptracer30_mean       =   1.1068510621797086E-04
(PID.TID 0000.0001) %MON trcstat_ptracer30_sd         =   9.5066171728479503E-04
(PID.TID 0000.0001) %MON trcstat_ptracer30_del2       =   9.8226151386869237E-07
(PID.TID 0000.0001) %MON trcstat_ptracer31_max        =   8.3083614706993103E-01
(PID.TID 0000.0001) %MON trcstat_ptracer31_min        =   0.0000000000000000E+00
(PID.TID 0000.0001) %MON trcstat_ptracer31_mean       =   1.1068510621796922E-03
(PID.TID 0000.0001) %MON trcstat_ptracer31_sd         =   9.5066171728477762E-03
(PID.TID 0000.0001) %MON trcstat_ptracer31_del2       =   9.8226151386868822E-06
(PID.TID 0000.0001) %MON trcstat_ptracer32_max        =   8.3083614706993103E-01
(PID.TID 0000.0001) %MON trcstat_ptracer32_min        =   0.0000000000000000E+00
(PID.TID 0000.0001) %MON trcstat_ptracer32_mean       =   1.1068510621796922E-03
(PID.TID 0000.0001) %MON trcstat_ptracer32_sd         =   9.5066171728477762E-03
(PID.TID 0000.0001) %MON trcstat_ptracer32_del2       =   9.8226151386868822E-06
(PID.TID 0000.0001) %MON trcstat_ptracer33_max        =   8.3083614706993103E-02
(PID.TID 0000.0001) %MON trcstat_ptracer33_min        =   0.0000000000000000E+00
(PID.TID 0000.0001) %MON trcstat_ptracer33_mean       =   1.1068510621797086E-04
(PID.TID 0000.0001) %MON trcstat_ptracer33_sd         =   9.5066171728479503E-04
(PID.TID 0000.0001) %MON trcstat_ptracer33_del2       =   9.8226151386869237E-07
(PID.TID 0000.0001) %MON trcstat_ptracer34_max        =   8.3083614706993103E-01
(PID.TID 0000.0001) %MON trcstat_ptracer34_min        =   0.0000000000000000E+00
(PID.TID 0000.0001) %MON trcstat_ptracer34_mean       =   1.1068510621796922E-03
(PID.TID 0000.0001) %MON trcstat_ptracer34_sd         =   9.5066171728477762E-03
(PID.TID 0000.0001) %MON trcstat_ptracer34_del2       =   9.8226151386868822E-06
(PID.TID 0000.0001) %MON trcstat_ptracer35_max        =   8.3083614706993103E-01
(PID.TID 0000.0001) %MON trcstat_ptracer35_min        =   0.0000000000000000E+00
(PID.TID 0000.0001) %MON trcstat_ptracer35_mean       =   1.1068510621796922E-03
(PID.TID 0000.0001) %MON trcstat_ptracer35_sd         =   9.5066171728477762E-03
(PID.TID 0000.0001) %MON trcstat_ptracer35_del2       =   9.8226151386868822E-06
(PID.TID 0000.0001) %MON trcstat_ptracer36_max        =   8.3083614706993103E-02
(PID.TID 0000.0001) %MON trcstat_ptracer36_min        =   0.0000000000000000E+00
(PID.TID 0000.0001) %MON trcstat_ptracer36_mean       =   1.1068510621797086E-04
(PID.TID 0000.0001) %MON trcstat_ptracer36_sd         =   9.5066171728479503E-04
(PID.TID 0000.0001) %MON trcstat_ptracer36_del2       =   9.8226151386869237E-07
(PID.TID 0000.0001) %MON trcstat_ptracer37_max        =   8.3083614706993103E-01
(PID.TID 0000.0001) %MON trcstat_ptracer37_min        =   0.0000000000000000E+00
(PID.TID 0000.0001) %MON trcstat_ptracer37_mean       =   1.1068510621796922E-03
(PID.TID 0000.0001) %MON trcstat_ptracer37_sd         =   9.5066171728477762E-03
(PID.TID 0000.0001) %MON trcstat_ptracer37_del2       =   9.8226151386868822E-06
(PID.TID 0000.0001) %MON trcstat_ptracer38_max        =   8.3083614706993103E-01
(PID.TID 0000.0001) %MON trcstat_ptracer38_min        =   0.0000000000000000E+00
(PID.TID 0000.0001) %MON trcstat_ptracer38_mean       =   1.1068510621796922E-03
(PID.TID 0000.0001) %MON trcstat_ptracer38_sd         =   9.5066171728477762E-03
(PID.TID 0000.0001) %MON trcstat_ptracer38_del2       =   9.8226151386868822E-06
(PID.TID 0000.0001) %MON trcstat_ptracer39_max        =   8.3083614706993103E-01
(PID.TID 0000.0001) %MON trcstat_ptracer39_min        =   0.0000000000000000E+00
(PID.TID 0000.0001) %MON trcstat_ptracer39_mean       =   1.1068510621796922E-03
(PID.TID 0000.0001) %MON trcstat_ptracer39_sd         =   9.5066171728477762E-03
(PID.TID 0000.0001) %MON trcstat_ptracer39_del2       =   9.8226151386868822E-06
(PID.TID 0000.0001) %MON trcstat_ptracer40_max        =   8.3083614706993103E-01
(PID.TID 0000.0001) %MON trcstat_ptracer40_min        =   0.0000000000000000E+00
(PID.TID 0000.0001) %MON trcstat_ptracer40_mean       =   1.1068510621796922E-03
(PID.TID 0000.0001) %MON trcstat_ptracer40_sd         =   9.5066171728477762E-03
(PID.TID 0000.0001) %MON trcstat_ptracer40_del2       =   9.8226151386868822E-06
(PID.TID 0000.0001) %MON trcstat_ptracer41_max        =   8.3083614706993103E-01
(PID.TID 0000.0001) %MON trcstat_ptracer41_min        =   0.0000000000000000E+00
(PID.TID 0000.0001) %MON trcstat_ptracer41_mean       =   1.1068510621796922E-03
(PID.TID 0000.0001) %MON trcstat_ptracer41_sd         =   9.5066171728477762E-03
(PID.TID 0000.0001) %MON trcstat_ptracer41_del2       =   9.8226151386868822E-06
(PID.TID 0000.0001) %MON trcstat_ptracer42_max        =   8.3083614706993103E-01
(PID.TID 0000.0001) %MON trcstat_ptracer42_min        =   0.0000000000000000E+00
(PID.TID 0000.0001) %MON trcstat_ptracer42_mean       =   1.1068510621796922E-03
(PID.TID 0000.0001) %MON trcstat_ptracer42_sd         =   9.5066171728477762E-03
(PID.TID 0000.0001) %MON trcstat_ptracer42_del2       =   9.8226151386868822E-06
(PID.TID 0000.0001) %MON trcstat_ptracer43_max        =   8.3083614706993103E-01
(PID.TID 0000.0001) %MON trcstat_ptracer43_min        =   0.0000000000000000E+00
(PID.TID 0000.0001) %MON trcstat_ptracer43_mean       =   1.1068510621796922E-03
(PID.TID 0000.0001) %MON trcstat_ptracer43_sd         =   9.5066171728477762E-03
(PID.TID 0000.0001) %MON trcstat_ptracer43_del2       =   9.8226151386868822E-06
(PID.TID 0000.0001) %MON trcstat_ptracer44_max        =   8.3083614706993103E-01
(PID.TID 0000.0001) %MON trcstat_ptracer44_min        =   0.0000000000000000E+00
(PID.TID 0000.0001) %MON trcstat_ptracer44_mean       =   1.1068510621796922E-03
(PID.TID 0000.0001) %MON trcstat_ptracer44_sd         =   9.5066171728477762E-03
(PID.TID 0000.0001) %MON trcstat_ptracer44_del2       =   9.8226151386868822E-06
(PID.TID 0000.0001) %MON trcstat_ptracer45_max        =   8.3083614706993103E-01
(PID.TID 0000.0001) %MON trcstat_ptracer45_min        =   0.0000000000000000E+00
(PID.TID 0000.0001) %MON trcstat_ptracer45_mean       =   1.1068510621796922E-03
(PID.TID 0000.0001) %MON trcstat_ptracer45_sd         =   9.5066171728477762E-03
(PID.TID 0000.0001) %MON trcstat_ptracer45_del2       =   9.8226151386868822E-06
(PID.TID 0000.0001) %MON trcstat_ptracer46_max        =   8.3083614706993103E-01
(PID.TID 0000.0001) %MON trcstat_ptracer46_min        =   0.0000000000000000E+00
(PID.TID 0000.0001) %MON trcstat_ptracer46_mean       =   1.1068510621796922E-03
(PID.TID 0000.0001) %MON trcstat_ptracer46_sd         =   9.5066171728477762E-03
(PID.TID 0000.0001) %MON trcstat_ptracer46_del2       =   9.8226151386868822E-06
(PID.TID 0000.0001) %MON trcstat_ptracer47_max        =   8.3083614706993103E-01
(PID.TID 0000.0001) %MON trcstat_ptracer47_min        =   0.0000000000000000E+00
(PID.TID 0000.0001) %MON trcstat_ptracer47_mean       =   1.1068510621796922E-03
(PID.TID 0000.0001) %MON trcstat_ptracer47_sd         =   9.5066171728477762E-03
(PID.TID 0000.0001) %MON trcstat_ptracer47_del2       =   9.8226151386868822E-06
(PID.TID 0000.0001) %MON trcstat_ptracer48_max        =   8.3083614706993103E-01
(PID.TID 0000.0001) %MON trcstat_ptracer48_min        =   0.0000000000000000E+00
(PID.TID 0000.0001) %MON trcstat_ptracer48_mean       =   1.1068510621796922E-03
(PID.TID 0000.0001) %MON trcstat_ptracer48_sd         =   9.5066171728477762E-03
(PID.TID 0000.0001) %MON trcstat_ptracer48_del2       =   9.8226151386868822E-06
(PID.TID 0000.0001) %MON trcstat_ptracer49_max        =   8.3083614706993103E-01
(PID.TID 0000.0001) %MON trcstat_ptracer49_min        =   0.0000000000000000E+00
(PID.TID 0000.0001) %MON trcstat_ptracer49_mean       =   1.1068510621796922E-03
(PID.TID 0000.0001) %MON trcstat_ptracer49_sd         =   9.5066171728477762E-03
(PID.TID 0000.0001) %MON trcstat_ptracer49_del2       =   9.8226151386868822E-06
(PID.TID 0000.0001) %MON trcstat_ptracer50_max        =   8.3083614706993103E-01
(PID.TID 0000.0001) %MON trcstat_ptracer50_min        =   0.0000000000000000E+00
(PID.TID 0000.0001) %MON trcstat_ptracer50_mean       =   1.1068510621796922E-03
(PID.TID 0000.0001) %MON trcstat_ptracer50_sd         =   9.5066171728477762E-03
(PID.TID 0000.0001) %MON trcstat_ptracer50_del2       =   9.8226151386868822E-06
(PID.TID 0000.0001) %MON trcstat_ptracer51_max        =   8.3083614706993103E-01
(PID.TID 0000.0001) %MON trcstat_ptracer51_min        =   0.0000000000000000E+00
(PID.TID 0000.0001) %MON trcstat_ptracer51_mean       =   1.1068510621796922E-03
(PID.TID 0000.0001) %MON trcstat_ptracer51_sd         =   9.5066171728477762E-03
(PID.TID 0000.0001) %MON trcstat_ptracer51_del2       =   9.8226151386868822E-06
(PID.TID 0000.0001) %MON trcstat_ptracer52_max        =   8.3083614706993103E-01
(PID.TID 0000.0001) %MON trcstat_ptracer52_min        =   0.0000000000000000E+00
(PID.TID 0000.0001) %MON trcstat_ptracer52_mean       =   1.1068510621796922E-03
(PID.TID 0000.0001) %MON trcstat_ptracer52_sd         =   9.5066171728477762E-03
(PID.TID 0000.0001) %MON trcstat_ptracer52_del2       =   9.8226151386868822E-06
(PID.TID 0000.0001) %MON trcstat_ptracer53_max        =   8.3083614706993103E-01
(PID.TID 0000.0001) %MON trcstat_ptracer53_min        =   0.0000000000000000E+00
(PID.TID 0000.0001) %MON trcstat_ptracer53_mean       =   1.1068510621796922E-03
(PID.TID 0000.0001) %MON trcstat_ptracer53_sd         =   9.5066171728477762E-03
(PID.TID 0000.0001) %MON trcstat_ptracer53_del2       =   9.8226151386868822E-06
(PID.TID 0000.0001) %MON trcstat_ptracer54_max        =   8.3083614706993103E-01
(PID.TID 0000.0001) %MON trcstat_ptracer54_min        =   0.0000000000000000E+00
(PID.TID 0000.0001) %MON trcstat_ptracer54_mean       =   1.1068510621796922E-03
(PID.TID 0000.0001) %MON trcstat_ptracer54_sd         =   9.5066171728477762E-03
(PID.TID 0000.0001) %MON trcstat_ptracer54_del2       =   9.8226151386868822E-06
(PID.TID 0000.0001) %MON trcstat_ptracer55_max        =   8.3083614706993103E-01
(PID.TID 0000.0001) %MON trcstat_ptracer55_min        =   0.0000000000000000E+00
(PID.TID 0000.0001) %MON trcstat_ptracer55_mean       =   1.1068510621796922E-03
(PID.TID 0000.0001) %MON trcstat_ptracer55_sd         =   9.5066171728477762E-03
(PID.TID 0000.0001) %MON trcstat_ptracer55_del2       =   9.8226151386868822E-06
(PID.TID 0000.0001) %MON trcstat_ptracer56_max        =   8.3083614706993103E-01
(PID.TID 0000.0001) %MON trcstat_ptracer56_min        =   0.0000000000000000E+00
(PID.TID 0000.0001) %MON trcstat_ptracer56_mean       =   1.1068510621796922E-03
(PID.TID 0000.0001) %MON trcstat_ptracer56_sd         =   9.5066171728477762E-03
(PID.TID 0000.0001) %MON trcstat_ptracer56_del2       =   9.8226151386868822E-06
(PID.TID 0000.0001) %MON trcstat_ptracer57_max        =   8.3083614706993103E-01
(PID.TID 0000.0001) %MON trcstat_ptracer57_min        =   0.0000000000000000E+00
(PID.TID 0000.0001) %MON trcstat_ptracer57_mean       =   1.1068510621796922E-03
(PID.TID 0000.0001) %MON trcstat_ptracer57_sd         =   9.5066171728477762E-03
(PID.TID 0000.0001) %MON trcstat_ptracer57_del2       =   9.8226151386868822E-06
(PID.TID 0000.0001) %MON trcstat_ptracer58_max        =   2.3160287311600095E-01
(PID.TID 0000.0001) %MON trcstat_ptracer58_min        =   0.0000000000000000E+00
(PID.TID 0000.0001) %MON trcstat_ptracer58_mean       =   2.0215966695297802E-04
(PID.TID 0000.0001) %MON trcstat_ptracer58_sd         =   2.0586706642354720E-03
(PID.TID 0000.0001) %MON trcstat_ptracer58_del2       =   2.0412257237375716E-06
(PID.TID 0000.0001) %MON trcstat_ptracer59_max        =   2.3161516013231179E-01
(PID.TID 0000.0001) %MON trcstat_ptracer59_min        =   0.0000000000000000E+00
(PID.TID 0000.0001) %MON trcstat_ptracer59_mean       =   2.0622884752117838E-04
(PID.TID 0000.0001) %MON trcstat_ptracer59_sd         =   2.0836789353844234E-03
(PID.TID 0000.0001) %MON trcstat_ptracer59_del2       =   2.0637017492840285E-06
(PID.TID 0000.0001) %MON trcstat_ptracer60_max        =   2.3162647320784338E-01
(PID.TID 0000.0001) %MON trcstat_ptracer60_min        =   0.0000000000000000E+00
(PID.TID 0000.0001) %MON trcstat_ptracer60_mean       =   2.1027243492691733E-04
(PID.TID 0000.0001) %MON trcstat_ptracer60_sd         =   2.1084334868160417E-03
(PID.TID 0000.0001) %MON trcstat_ptracer60_del2       =   2.0862102608478135E-06
(PID.TID 0000.0001) %MON trcstat_ptracer61_max        =   2.3163688945865754E-01
(PID.TID 0000.0001) %MON trcstat_ptracer61_min        =   0.0000000000000000E+00
(PID.TID 0000.0001) %MON trcstat_ptracer61_mean       =   2.1428650925448196E-04
(PID.TID 0000.0001) %MON trcstat_ptracer61_sd         =   2.1329162741768352E-03
(PID.TID 0000.0001) %MON trcstat_ptracer61_del2       =   2.1087350961482105E-06
(PID.TID 0000.0001) %MON trcstat_ptracer62_max        =   2.3162788631828579E-02
(PID.TID 0000.0001) %MON trcstat_ptracer62_min        =   0.0000000000000000E+00
(PID.TID 0000.0001) %MON trcstat_ptracer62_mean       =   2.1079971142728726E-05
(PID.TID 0000.0001) %MON trcstat_ptracer62_sd         =   2.1116545572619498E-04
(PID.TID 0000.0001) %MON trcstat_ptracer62_del2       =   2.0891585775940180E-07
(PID.TID 0000.0001) %MON trcstat_ptracer63_max        =   2.3171880740420472E-01
(PID.TID 0000.0001) %MON trcstat_ptracer63_min        =   0.0000000000000000E+00
(PID.TID 0000.0001) %MON trcstat_ptracer63_mean       =   2.6433088469187066E-04
(PID.TID 0000.0001) %MON trcstat_ptracer63_sd         =   2.4329406360906565E-03
(PID.TID 0000.0001) %MON trcstat_ptracer63_del2       =   2.4103930009379681E-06
(PID.TID 0000.0001) %MON trcstat_ptracer64_max        =   2.3173917544575254E-01
(PID.TID 0000.0001) %MON trcstat_ptracer64_min        =   0.0000000000000000E+00
(PID.TID 0000.0001) %MON trcstat_ptracer64_mean       =   2.8958709167843899E-04
(PID.TID 0000.0001) %MON trcstat_ptracer64_sd         =   2.5842009461584355E-03
(PID.TID 0000.0001) %MON trcstat_ptracer64_del2       =   2.5857447991922300E-06
(PID.TID 0000.0001) %MON trcstat_ptracer65_max        =   2.3160272020161680E-02
(PID.TID 0000.0001) %MON trcstat_ptracer65_min        =   0.0000000000000000E+00
(PID.TID 0000.0001) %MON trcstat_ptracer65_mean       =   2.0211094508780678E-05
(PID.TID 0000.0001) %MON trcstat_ptracer65_sd         =   2.0583706256778478E-04
(PID.TID 0000.0001) %MON trcstat_ptracer65_del2       =   2.0409576380425282E-07
(PID.TID 0000.0001) %MON trcstat_ptracer66_max        =   2.3171125106635998E-01
(PID.TID 0000.0001) %MON trcstat_ptracer66_min        =   0.0000000000000000E+00
(PID.TID 0000.0001) %MON trcstat_ptracer66_mean       =   2.5728201481785442E-04
(PID.TID 0000.0001) %MON trcstat_ptracer66_sd         =   2.3909815091485366E-03
(PID.TID 0000.0001) %MON trcstat_ptracer66_del2       =   2.3648840890111061E-06
(PID.TID 0000.0001) %MON trcstat_ptracer67_max        =   2.3173556629433661E-01
(PID.TID 0000.0001) %MON trcstat_ptracer67_min        =   0.0000000000000000E+00
(PID.TID 0000.0001) %MON trcstat_ptracer67_mean       =   2.8418056814769066E-04
(PID.TID 0000.0001) %MON trcstat_ptracer67_sd         =   2.5515934893658183E-03
(PID.TID 0000.0001) %MON trcstat_ptracer67_del2       =   2.5463410893548564E-06
(PID.TID 0000.0001) %MON trcstat_ptracer68_max        =   2.3157268277737082E-02
(PID.TID 0000.0001) %MON trcstat_ptracer68_min        =   0.0000000000000000E+00
(PID.TID 0000.0001) %MON trcstat_ptracer68_mean       =   1.9332307134320683E-05
(PID.TID 0000.0001) %MON trcstat_ptracer68_sd         =   2.0040110526121452E-04
(PID.TID 0000.0001) %MON trcstat_ptracer68_del2       =   1.9929830268019541E-07
(PID.TID 0000.0001) %MON trcstat_ptracer69_max        =   2.3170223057287612E-01
(PID.TID 0000.0001) %MON trcstat_ptracer69_min        =   0.0000000000000000E+00
(PID.TID 0000.0001) %MON trcstat_ptracer69_mean       =   2.4989619096545698E-04
(PID.TID 0000.0001) %MON trcstat_ptracer69_sd         =   2.3470008759061555E-03
(PID.TID 0000.0001) %MON trcstat_ptracer69_del2       =   2.3184806705853424E-06
(PID.TID 0000.0001) %MON trcstat_ptracer70_max        =   2.3173125765379254E-01
(PID.TID 0000.0001) %MON trcstat_ptracer70_min        =   0.0000000000000000E+00
(PID.TID 0000.0001) %MON trcstat_ptracer70_mean       =   2.7835562076521911E-04
(PID.TID 0000.0001) %MON trcstat_ptracer70_sd         =   2.5166381065954584E-03
(PID.TID 0000.0001) %MON trcstat_ptracer70_del2       =   2.5051109987808960E-06
(PID.TID 0000.0001) %MON trcstat_ptracer71_max        =   2.3153683278060437E-02
(PID.TID 0000.0001) %MON trcstat_ptracer71_min        =   0.0000000000000000E+00
(PID.TID 0000.0001) %MON trcstat_ptracer71_mean       =   1.8447541030670038E-05
(PID.TID 0000.0001) %MON trcstat_ptracer71_sd         =   1.9487769446419534E-04
(PID.TID 0000.0001) %MON trcstat_ptracer71_del2       =   1.9454022849688332E-07
(PID.TID 0000.0001) %MON trcstat_ptracer72_max        =   2.3169146237058122E-01
(PID.TID 0000.0001) %MON trcstat_ptracer72_min        =   0.0000000000000000E+00
(PID.TID 0000.0001) %MON trcstat_ptracer72_mean       =   2.4220303123223094E-04
(PID.TID 0000.0001) %MON trcstat_ptracer72_sd         =   2.3011051482040683E-03
(PID.TID 0000.0001) %MON trcstat_ptracer72_del2       =   2.2713746584178750E-06
(PID.TID 0000.0001) %MON trcstat_ptracer73_max        =   2.3172611399029525E-01
(PID.TID 0000.0001) %MON trcstat_ptracer73_min        =   0.0000000000000000E+00
(PID.TID 0000.0001) %MON trcstat_ptracer73_mean       =   2.7212415371420662E-04
(PID.TID 0000.0001) %MON trcstat_ptracer73_sd         =   2.4793904504607253E-03
(PID.TID 0000.0001) %MON trcstat_ptracer73_del2       =   2.4622830421172372E-06
(PID.TID 0000.0001) %MON trcstat_ptracer74_max        =   2.3149404777209951E-02
(PID.TID 0000.0001) %MON trcstat_ptracer74_min        =   0.0000000000000000E+00
(PID.TID 0000.0001) %MON trcstat_ptracer74_mean       =   1.7560768780470475E-05
(PID.TID 0000.0001) %MON trcstat_ptracer74_sd         =   1.8928886096473746E-04
(PID.TID 0000.0001) %MON trcstat_ptracer74_del2       =   1.8983882385663785E-07
(PID.TID 0000.0001) %MON trcstat_ptracer75_max        =   2.3167860805593571E-01
(PID.TID 0000.0001) %MON trcstat_ptracer75_min        =   0.0000000000000000E+00
(PID.TID 0000.0001) %MON trcstat_ptracer75_mean       =   2.3423472733709801E-04
(PID.TID 0000.0001) %MON trcstat_ptracer75_sd         =   2.2534094410737583E-03
(PID.TID 0000.0001) %MON trcstat_ptracer75_del2       =   2.2237414457832034E-06
(PID.TID 0000.0001) %MON trcstat_ptracer76_max        =   2.3171997352331253E-01
(PID.TID 0000.0001) %MON trcstat_ptracer76_min        =   0.0000000000000000E+00
(PID.TID 0000.0001) %MON trcstat_ptracer76_mean       =   2.6550332903890202E-04
(PID.TID 0000.0001) %MON trcstat_ptracer76_sd         =   2.4399226733783520E-03
(PID.TID 0000.0001) %MON trcstat_ptracer76_del2       =   2.4180889351249378E-06
(PID.TID 0000.0001) %MON trcstat_ptracer77_max        =   2.3166326379178703E-01
(PID.TID 0000.0001) %MON trcstat_ptracer77_min        =   0.0000000000000000E+00
(PID.TID 0000.0001) %MON trcstat_ptracer77_mean       =   2.2602550765599735E-04
(PID.TID 0000.0001) %MON trcstat_ptracer77_sd         =   2.2040385389028214E-03
(PID.TID 0000.0001) %MON trcstat_ptracer77_del2       =   2.1757433768404578E-06
(PID.TID 0000.0001) %MON trcstat_ptracer78_max        =   2.3171264314897605E-01
(PID.TID 0000.0001) %MON trcstat_ptracer78_min        =   0.0000000000000000E+00
(PID.TID 0000.0001) %MON trcstat_ptracer78_mean       =   2.5851496781604513E-04
(PID.TID 0000.0001) %MON trcstat_ptracer78_sd         =   2.3983201056026753E-03
(PID.TID 0000.0001) %MON trcstat_ptracer78_del2       =   2.3727538855223651E-06
(PID.TID 0000.0001) %MON trcstat_ptracer79_max        =   2.3170389238415068E-01
(PID.TID 0000.0001) %MON trcstat_ptracer79_min        =   0.0000000000000000E+00
(PID.TID 0000.0001) %MON trcstat_ptracer79_mean       =   2.5118487830131015E-04
(PID.TID 0000.0001) %MON trcstat_ptracer79_sd         =   2.3546786595192992E-03
(PID.TID 0000.0001) %MON trcstat_ptracer79_del2       =   2.3264896806717017E-06
(PID.TID 0000.0001) %MON trcstat_ptracer80_max        =   2.3169344614340628E-01
(PID.TID 0000.0001) %MON trcstat_ptracer80_min        =   0.0000000000000000E+00
(PID.TID 0000.0001) %MON trcstat_ptracer80_mean       =   2.4354217700900868E-04
(PID.TID 0000.0001) %MON trcstat_ptracer80_sd         =   2.3091032712605581E-03
(PID.TID 0000.0001) %MON trcstat_ptracer80_del2       =   2.2794912171847444E-06
(PID.TID 0000.0001) %MON trcstat_ptracer81_max        =   2.3168097612555638E-01
(PID.TID 0000.0001) %MON trcstat_ptracer81_min        =   0.0000000000000000E+00
(PID.TID 0000.0001) %MON trcstat_ptracer81_mean       =   2.3561865526399106E-04
(PID.TID 0000.0001) %MON trcstat_ptracer81_sd         =   2.2617075250981112E-03
(PID.TID 0000.0001) %MON trcstat_ptracer81_del2       =   2.2319365416670885E-06
(PID.TID 0000.0001) // =======================================================
(PID.TID 0000.0001) // End MONITOR ptracers field statistics
(PID.TID 0000.0001) // =======================================================
(PID.TID 0000.0001) // =======================================================
(PID.TID 0000.0001) // Begin MONITOR EXF statistics
(PID.TID 0000.0001) // =======================================================
(PID.TID 0000.0001) %MON exf_tsnumber                 =                     0
(PID.TID 0000.0001) %MON exf_time_sec                 =   0.0000000000000000E+00
(PID.TID 0000.0001) %MON exf_ustress_max              =   0.0000000000000000E+00
(PID.TID 0000.0001) %MON exf_ustress_min              =   0.0000000000000000E+00
(PID.TID 0000.0001) %MON exf_ustress_mean             =   0.0000000000000000E+00
(PID.TID 0000.0001) %MON exf_ustress_sd               =   0.0000000000000000E+00
(PID.TID 0000.0001) %MON exf_ustress_del2             =   0.0000000000000000E+00
(PID.TID 0000.0001) %MON exf_vstress_max              =   0.0000000000000000E+00
(PID.TID 0000.0001) %MON exf_vstress_min              =   0.0000000000000000E+00
(PID.TID 0000.0001) %MON exf_vstress_mean             =   0.0000000000000000E+00
(PID.TID 0000.0001) %MON exf_vstress_sd               =   0.0000000000000000E+00
(PID.TID 0000.0001) %MON exf_vstress_del2             =   0.0000000000000000E+00
(PID.TID 0000.0001) %MON exf_hflux_max                =   0.0000000000000000E+00
(PID.TID 0000.0001) %MON exf_hflux_min                =   0.0000000000000000E+00
(PID.TID 0000.0001) %MON exf_hflux_mean               =   0.0000000000000000E+00
(PID.TID 0000.0001) %MON exf_hflux_sd                 =   0.0000000000000000E+00
(PID.TID 0000.0001) %MON exf_hflux_del2               =   0.0000000000000000E+00
(PID.TID 0000.0001) %MON exf_sflux_max                =   0.0000000000000000E+00
(PID.TID 0000.0001) %MON exf_sflux_min                =   0.0000000000000000E+00
(PID.TID 0000.0001) %MON exf_sflux_mean               =   0.0000000000000000E+00
(PID.TID 0000.0001) %MON exf_sflux_sd                 =   0.0000000000000000E+00
(PID.TID 0000.0001) %MON exf_sflux_del2               =   0.0000000000000000E+00
(PID.TID 0000.0001) %MON exf_uwind_max                =   0.0000000000000000E+00
(PID.TID 0000.0001) %MON exf_uwind_min                =   0.0000000000000000E+00
(PID.TID 0000.0001) %MON exf_uwind_mean               =   0.0000000000000000E+00
(PID.TID 0000.0001) %MON exf_uwind_sd                 =   0.0000000000000000E+00
(PID.TID 0000.0001) %MON exf_uwind_del2               =   0.0000000000000000E+00
(PID.TID 0000.0001) %MON exf_vwind_max                =   0.0000000000000000E+00
(PID.TID 0000.0001) %MON exf_vwind_min                =   0.0000000000000000E+00
(PID.TID 0000.0001) %MON exf_vwind_mean               =   0.0000000000000000E+00
(PID.TID 0000.0001) %MON exf_vwind_sd                 =   0.0000000000000000E+00
(PID.TID 0000.0001) %MON exf_vwind_del2               =   0.0000000000000000E+00
(PID.TID 0000.0001) %MON exf_wspeed_max               =   0.0000000000000000E+00
(PID.TID 0000.0001) %MON exf_wspeed_min               =   0.0000000000000000E+00
(PID.TID 0000.0001) %MON exf_wspeed_mean              =   0.0000000000000000E+00
(PID.TID 0000.0001) %MON exf_wspeed_sd                =   0.0000000000000000E+00
(PID.TID 0000.0001) %MON exf_wspeed_del2              =   0.0000000000000000E+00
(PID.TID 0000.0001) %MON exf_evap_max                 =   0.0000000000000000E+00
(PID.TID 0000.0001) %MON exf_evap_min                 =   0.0000000000000000E+00
(PID.TID 0000.0001) %MON exf_evap_mean                =   0.0000000000000000E+00
(PID.TID 0000.0001) %MON exf_evap_sd                  =   0.0000000000000000E+00
(PID.TID 0000.0001) %MON exf_evap_del2                =   0.0000000000000000E+00
(PID.TID 0000.0001) // =======================================================
(PID.TID 0000.0001) // End MONITOR EXF statistics
(PID.TID 0000.0001) // =======================================================
 EXTERNAL_FIELDS_LOAD, it=         0 : Reading new data, i0,i1=   12    1 (prev=   12    0 )
(PID.TID 0000.0001) // =======================================================
(PID.TID 0000.0001) // Begin MONITOR dynamic field statistics
(PID.TID 0000.0001) // =======================================================
(PID.TID 0000.0001) %MON time_tsnumber                =                     1
(PID.TID 0000.0001) %MON time_secondsf                =   1.0800000000000000E+04
(PID.TID 0000.0001) %MON dynstat_eta_max              =   0.0000000000000000E+00
(PID.TID 0000.0001) %MON dynstat_eta_min              =   0.0000000000000000E+00
(PID.TID 0000.0001) %MON dynstat_eta_mean             =   0.0000000000000000E+00
(PID.TID 0000.0001) %MON dynstat_eta_sd               =   0.0000000000000000E+00
(PID.TID 0000.0001) %MON dynstat_eta_del2             =   0.0000000000000000E+00
(PID.TID 0000.0001) %MON dynstat_uvel_max             =   7.5098115205764771E-01
(PID.TID 0000.0001) %MON dynstat_uvel_min             =  -8.5988894104957581E-01
(PID.TID 0000.0001) %MON dynstat_uvel_mean            =   2.3572816524444476E-03
(PID.TID 0000.0001) %MON dynstat_uvel_sd              =   2.2920832952052075E-02
(PID.TID 0000.0001) %MON dynstat_uvel_del2            =   2.5380623508417271E-05
(PID.TID 0000.0001) %MON dynstat_vvel_max             =   1.4433979988098145E+00
(PID.TID 0000.0001) %MON dynstat_vvel_min             =  -7.9056510329246521E-01
(PID.TID 0000.0001) %MON dynstat_vvel_mean            =  -1.9003223157283906E-05
(PID.TID 0000.0001) %MON dynstat_vvel_sd              =   1.1606396696779764E-02
(PID.TID 0000.0001) %MON dynstat_vvel_del2            =   2.3903080664409944E-05
(PID.TID 0000.0001) %MON dynstat_wvel_max             =   4.0098184399539605E-04
(PID.TID 0000.0001) %MON dynstat_wvel_min             =  -6.1701977392658591E-04
(PID.TID 0000.0001) %MON dynstat_wvel_mean            =   2.0603847453957670E-14
(PID.TID 0000.0001) %MON dynstat_wvel_sd              =   1.0036396689562423E-05
(PID.TID 0000.0001) %MON dynstat_wvel_del2            =   1.8497991144322058E-08
(PID.TID 0000.0001) %MON dynstat_theta_max            =   3.1759957313537598E+01
(PID.TID 0000.0001) %MON dynstat_theta_min            =  -2.6781991720199585E+00
(PID.TID 0000.0001) %MON dynstat_theta_mean           =   3.6072900423544030E+00
(PID.TID 0000.0001) %MON dynstat_theta_sd             =   4.4541205956314647E+00
(PID.TID 0000.0001) %MON dynstat_theta_del2           =   3.5727313459856381E-04
(PID.TID 0000.0001) %MON dynstat_salt_max             =   3.9536773681640625E+01
(PID.TID 0000.0001) %MON dynstat_salt_min             =   2.6413101196289062E+01
(PID.TID 0000.0001) %MON dynstat_salt_mean            =   3.4722225910308687E+01
(PID.TID 0000.0001) %MON dynstat_salt_sd              =   3.6521486169891076E-01
(PID.TID 0000.0001) %MON dynstat_salt_del2            =   6.8647712204606049E-05
(PID.TID 0000.0001) %MON dynstat_sst_max              =   3.1759957313537598E+01
(PID.TID 0000.0001) %MON dynstat_sst_min              =  -1.9927841424942017E+00
(PID.TID 0000.0001) %MON dynstat_sst_mean             =   1.9180627039434452E+01
(PID.TID 0000.0001) %MON dynstat_sst_sd               =   9.5507126256378854E+00
(PID.TID 0000.0001) %MON dynstat_sst_del2             =   2.1359256876322822E-03
(PID.TID 0000.0001) %MON dynstat_sss_max              =   3.9536773681640625E+01
(PID.TID 0000.0001) %MON dynstat_sss_min              =   2.6413101196289062E+01
(PID.TID 0000.0001) %MON dynstat_sss_mean             =   3.4862233940638127E+01
(PID.TID 0000.0001) %MON dynstat_sss_sd               =   1.0826450093342124E+00
(PID.TID 0000.0001) %MON dynstat_sss_del2             =   5.9710833084477015E-04
(PID.TID 0000.0001) %MON forcing_qnet_max             =   0.0000000000000000E+00
(PID.TID 0000.0001) %MON forcing_qnet_min             =   0.0000000000000000E+00
(PID.TID 0000.0001) %MON forcing_qnet_mean            =   0.0000000000000000E+00
(PID.TID 0000.0001) %MON forcing_qnet_sd              =   0.0000000000000000E+00
(PID.TID 0000.0001) %MON forcing_qnet_del2            =   0.0000000000000000E+00
(PID.TID 0000.0001) %MON forcing_qsw_max              =   0.0000000000000000E+00
(PID.TID 0000.0001) %MON forcing_qsw_min              =   0.0000000000000000E+00
(PID.TID 0000.0001) %MON forcing_qsw_mean             =   0.0000000000000000E+00
(PID.TID 0000.0001) %MON forcing_qsw_sd               =   0.0000000000000000E+00
(PID.TID 0000.0001) %MON forcing_qsw_del2             =   0.0000000000000000E+00
(PID.TID 0000.0001) %MON forcing_empmr_max            =   0.0000000000000000E+00
(PID.TID 0000.0001) %MON forcing_empmr_min            =   0.0000000000000000E+00
(PID.TID 0000.0001) %MON forcing_empmr_mean           =   0.0000000000000000E+00
(PID.TID 0000.0001) %MON forcing_empmr_sd             =   0.0000000000000000E+00
(PID.TID 0000.0001) %MON forcing_empmr_del2           =   0.0000000000000000E+00
(PID.TID 0000.0001) %MON forcing_fu_max               =   0.0000000000000000E+00
(PID.TID 0000.0001) %MON forcing_fu_min               =   0.0000000000000000E+00
(PID.TID 0000.0001) %MON forcing_fu_mean              =   0.0000000000000000E+00
(PID.TID 0000.0001) %MON forcing_fu_sd                =   0.0000000000000000E+00
(PID.TID 0000.0001) %MON forcing_fu_del2              =   0.0000000000000000E+00
(PID.TID 0000.0001) %MON forcing_fv_max               =   0.0000000000000000E+00
(PID.TID 0000.0001) %MON forcing_fv_min               =   0.0000000000000000E+00
(PID.TID 0000.0001) %MON forcing_fv_mean              =   0.0000000000000000E+00
(PID.TID 0000.0001) %MON forcing_fv_sd                =   0.0000000000000000E+00
(PID.TID 0000.0001) %MON forcing_fv_del2              =   0.0000000000000000E+00
(PID.TID 0000.0001) %MON advcfl_uvel_max              =   1.4092930500925430E-01
(PID.TID 0000.0001) %MON advcfl_vvel_max              =   1.4021454092399671E-01
(PID.TID 0000.0001) %MON advcfl_wvel_max              =   1.9247128511779013E-01
(PID.TID 0000.0001) %MON advcfl_W_hf_max              =   2.1653019575751387E-01
(PID.TID 0000.0001) %MON pe_b_mean                    =   0.0000000000000000E+00
(PID.TID 0000.0001) %MON ke_max                       =   8.2762730601178824E-01
(PID.TID 0000.0001) %MON ke_mean                      =   3.1922519158178876E-04
(PID.TID 0000.0001) %MON ke_vol                       =   1.3258927395735470E+18
(PID.TID 0000.0001) %MON vort_r_min                   =  -1.4668072202507861E-05
(PID.TID 0000.0001) %MON vort_r_max                   =   2.0065492707288839E-05
(PID.TID 0000.0001) %MON vort_a_mean                  =  -2.1443554588587620E-05
(PID.TID 0000.0001) %MON vort_a_sd                    =   7.3250404447070092E-05
(PID.TID 0000.0001) %MON vort_p_mean                  =  -2.3136237641927041E-05
(PID.TID 0000.0001) %MON vort_p_sd                    =   8.5528229257188847E-05
(PID.TID 0000.0001) %MON surfExpan_theta_mean         =  -2.8534960787153132E-08
(PID.TID 0000.0001) %MON surfExpan_salt_mean          =   6.2500851105055986E-09
(PID.TID 0000.0001) // =======================================================
(PID.TID 0000.0001) // End MONITOR dynamic field statistics
(PID.TID 0000.0001) // =======================================================
(PID.TID 0000.0001) // =======================================================
(PID.TID 0000.0001) // Begin MONITOR ptracer field statistics
(PID.TID 0000.0001) // =======================================================
(PID.TID 0000.0001) %MON trcstat_ptracer01_max        =   2.4045039015400957E+03
(PID.TID 0000.0001) %MON trcstat_ptracer01_min        =   1.8486378651286796E+03
(PID.TID 0000.0001) %MON trcstat_ptracer01_mean       =   2.2546510277802035E+03
(PID.TID 0000.0001) %MON trcstat_ptracer01_sd         =   7.8586207694047857E+01
(PID.TID 0000.0001) %MON trcstat_ptracer01_del2       =   5.1442848696942531E-03
(PID.TID 0000.0001) %MON trcstat_ptracer02_max        =   2.1539830950964260E+00
(PID.TID 0000.0001) %MON trcstat_ptracer02_min        =  -1.9011161040818667E-02
(PID.TID 0000.0001) %MON trcstat_ptracer02_mean       =   1.8307739807308957E-03
(PID.TID 0000.0001) %MON trcstat_ptracer02_sd         =   1.7797112258206321E-02
(PID.TID 0000.0001) %MON trcstat_ptracer02_del2       =   2.9222822903950869E-05
(PID.TID 0000.0001) %MON trcstat_ptracer03_max        =   3.0477846091659151E+00
(PID.TID 0000.0001) %MON trcstat_ptracer03_min        =  -3.0554978672557070E-05
(PID.TID 0000.0001) %MON trcstat_ptracer03_mean       =   5.7980115375554789E-03
(PID.TID 0000.0001) %MON trcstat_ptracer03_sd         =   2.4324246415328245E-02
(PID.TID 0000.0001) %MON trcstat_ptracer03_del2       =   2.8726335022956557E-05
(PID.TID 0000.0001) %MON trcstat_ptracer04_max        =   5.0740289437534052E+01
(PID.TID 0000.0001) %MON trcstat_ptracer04_min        =   8.7909066124717552E-04
(PID.TID 0000.0001) %MON trcstat_ptracer04_mean       =   3.1007741202032310E+01
(PID.TID 0000.0001) %MON trcstat_ptracer04_sd         =   9.0056921616312557E+00
(PID.TID 0000.0001) %MON trcstat_ptracer04_del2       =   5.2846441419441962E-04
(PID.TID 0000.0001) %MON trcstat_ptracer05_max        =   3.7949839429368297E+00
(PID.TID 0000.0001) %MON trcstat_ptracer05_min        =   1.8924262345322591E-02
(PID.TID 0000.0001) %MON trcstat_ptracer05_mean       =   2.1762269193181245E+00
(PID.TID 0000.0001) %MON trcstat_ptracer05_sd         =   6.4451829021125162E-01
(PID.TID 0000.0001) %MON trcstat_ptracer05_del2       =   3.6398258465495330E-05
(PID.TID 0000.0001) %MON trcstat_ptracer06_max        =   2.6066098167632072E+02
(PID.TID 0000.0001) %MON trcstat_ptracer06_min        =   2.7437015181373914E-01
(PID.TID 0000.0001) %MON trcstat_ptracer06_mean       =   9.0810282441971310E+01
(PID.TID 0000.0001) %MON trcstat_ptracer06_sd         =   5.2140041178099359E+01
(PID.TID 0000.0001) %MON trcstat_ptracer06_del2       =   1.1862698143843351E-03
(PID.TID 0000.0001) %MON trcstat_ptracer07_max        =   1.0973642434356711E-03
(PID.TID 0000.0001) %MON trcstat_ptracer07_min        =   9.4854913573011516E-08
(PID.TID 0000.0001) %MON trcstat_ptracer07_mean       =   6.2098325389810651E-04
(PID.TID 0000.0001) %MON trcstat_ptracer07_sd         =   1.7822765155902420E-04
(PID.TID 0000.0001) %MON trcstat_ptracer07_del2       =   6.0082938806064898E-08
(PID.TID 0000.0001) %MON trcstat_ptracer08_max        =   5.2081795992934779E+01
(PID.TID 0000.0001) %MON trcstat_ptracer08_min        =  -1.5162007219690363E-06
(PID.TID 0000.0001) %MON trcstat_ptracer08_mean       =   2.2613852759401668E-01
(PID.TID 0000.0001) %MON trcstat_ptracer08_sd         =   1.3255072475080145E+00
(PID.TID 0000.0001) %MON trcstat_ptracer08_del2       =   1.2218556991371295E-03
(PID.TID 0000.0001) %MON trcstat_ptracer09_max        =   7.3092901297336184E+00
(PID.TID 0000.0001) %MON trcstat_ptracer09_min        =  -6.2842374108620795E-06
(PID.TID 0000.0001) %MON trcstat_ptracer09_mean       =   3.0366629823484013E-02
(PID.TID 0000.0001) %MON trcstat_ptracer09_sd         =   1.7843629413235068E-01
(PID.TID 0000.0001) %MON trcstat_ptracer09_del2       =   1.6510392699106154E-04
(PID.TID 0000.0001) %MON trcstat_ptracer10_max        =   4.3401497368751879E-01
(PID.TID 0000.0001) %MON trcstat_ptracer10_min        =  -3.9274438028092522E-07
(PID.TID 0000.0001) %MON trcstat_ptracer10_mean       =   1.8844877307585637E-03
(PID.TID 0000.0001) %MON trcstat_ptracer10_sd         =   1.1045893733346232E-02
(PID.TID 0000.0001) %MON trcstat_ptracer10_del2       =   1.0182130856857026E-05
(PID.TID 0000.0001) %MON trcstat_ptracer11_max        =   5.0689651089856126E-04
(PID.TID 0000.0001) %MON trcstat_ptracer11_min        =  -1.2001859786096517E-11
(PID.TID 0000.0001) %MON trcstat_ptracer11_mean       =   1.9113405028276909E-06
(PID.TID 0000.0001) %MON trcstat_ptracer11_sd         =   1.1265410036811018E-05
(PID.TID 0000.0001) %MON trcstat_ptracer11_del2       =   1.0497547447664827E-08
(PID.TID 0000.0001) %MON trcstat_ptracer12_max        =   1.3357567496956628E+03
(PID.TID 0000.0001) %MON trcstat_ptracer12_min        =   9.9382382748716217E-05
(PID.TID 0000.0001) %MON trcstat_ptracer12_mean       =   1.6661433509959020E-01
(PID.TID 0000.0001) %MON trcstat_ptracer12_sd         =   2.3109045814418026E+00
(PID.TID 0000.0001) %MON trcstat_ptracer12_del2       =   8.9985290337973021E-04
(PID.TID 0000.0001) %MON trcstat_ptracer13_max        =   1.8863380488590246E+02
(PID.TID 0000.0001) %MON trcstat_ptracer13_min        =   1.3254543945545438E-05
(PID.TID 0000.0001) %MON trcstat_ptracer13_mean       =   2.2555578441479620E-02
(PID.TID 0000.0001) %MON trcstat_ptracer13_sd         =   3.2892265026623918E-01
(PID.TID 0000.0001) %MON trcstat_ptracer13_del2       =   1.2365170142289656E-04
(PID.TID 0000.0001) %MON trcstat_ptracer14_max        =   1.1133110435587342E+01
(PID.TID 0000.0001) %MON trcstat_ptracer14_min        =   8.2818654524702887E-07
(PID.TID 0000.0001) %MON trcstat_ptracer14_mean       =   1.3884569077992838E-03
(PID.TID 0000.0001) %MON trcstat_ptracer14_sd         =   1.9259209930779959E-02
(PID.TID 0000.0001) %MON trcstat_ptracer14_del2       =   7.4987739878190816E-06
(PID.TID 0000.0001) %MON trcstat_ptracer15_max        =   1.2251722574648431E+02
(PID.TID 0000.0001) %MON trcstat_ptracer15_min        =   1.7518763653410644E-07
(PID.TID 0000.0001) %MON trcstat_ptracer15_mean       =   1.3527760140401401E-01
(PID.TID 0000.0001) %MON trcstat_ptracer15_sd         =   3.9857923338498980E-01
(PID.TID 0000.0001) %MON trcstat_ptracer15_del2       =   2.6792528142719976E-04
(PID.TID 0000.0001) %MON trcstat_ptracer16_max        =   1.2446057863074548E-02
(PID.TID 0000.0001) %MON trcstat_ptracer16_min        =   8.2863145406952907E-10
(PID.TID 0000.0001) %MON trcstat_ptracer16_mean       =   1.4309906338775725E-06
(PID.TID 0000.0001) %MON trcstat_ptracer16_sd         =   2.1868428581054101E-05
(PID.TID 0000.0001) %MON trcstat_ptracer16_del2       =   7.9838951335759048E-09
(PID.TID 0000.0001) %MON trcstat_ptracer17_max        =   3.9015894205232973E+02
(PID.TID 0000.0001) %MON trcstat_ptracer17_min        =   1.1510163805204985E-07
(PID.TID 0000.0001) %MON trcstat_ptracer17_mean       =   2.2839915699320745E-01
(PID.TID 0000.0001) %MON trcstat_ptracer17_sd         =   1.0028074947026016E+00
(PID.TID 0000.0001) %MON trcstat_ptracer17_del2       =   1.5407958379185561E-03
(PID.TID 0000.0001) %MON trcstat_ptracer18_max        =   2.4565680818715086E+03
(PID.TID 0000.0001) %MON trcstat_ptracer18_min        =   2.1796412377377710E+03
(PID.TID 0000.0001) %MON trcstat_ptracer18_mean       =   2.3632509368263322E+03
(PID.TID 0000.0001) %MON trcstat_ptracer18_sd         =   4.2540842258119412E+01
(PID.TID 0000.0001) %MON trcstat_ptracer18_del2       =   1.9215949455511690E-03
(PID.TID 0000.0001) %MON trcstat_ptracer19_max        =   4.0305148440343913E+02
(PID.TID 0000.0001) %MON trcstat_ptracer19_min        =   3.1111893835588535E+00
(PID.TID 0000.0001) %MON trcstat_ptracer19_mean       =   1.7468955113412827E+02
(PID.TID 0000.0001) %MON trcstat_ptracer19_sd         =   6.2911106119682863E+01
(PID.TID 0000.0001) %MON trcstat_ptracer19_del2       =   3.5573221505103671E-03
(PID.TID 0000.0001) %MON trcstat_ptracer20_max        =   8.4021057487701800E-01
(PID.TID 0000.0001) %MON trcstat_ptracer20_min        =   2.7975415433882332E-06
(PID.TID 0000.0001) %MON trcstat_ptracer20_mean       =   1.1159584477961164E-03
(PID.TID 0000.0001) %MON trcstat_ptracer20_sd         =   9.3427364043775392E-03
(PID.TID 0000.0001) %MON trcstat_ptracer20_del2       =   1.0493072181307045E-05
(PID.TID 0000.0001) %MON trcstat_ptracer21_max        =   8.4455688790021322E-01
(PID.TID 0000.0001) %MON trcstat_ptracer21_min        =   2.8461204207829207E-06
(PID.TID 0000.0001) %MON trcstat_ptracer21_mean       =   1.1171193079498255E-03
(PID.TID 0000.0001) %MON trcstat_ptracer21_sd         =   9.3516862943831582E-03
(PID.TID 0000.0001) %MON trcstat_ptracer21_del2       =   1.0509441620092467E-05
(PID.TID 0000.0001) %MON trcstat_ptracer22_max        =   8.4862162802599606E-01
(PID.TID 0000.0001) %MON trcstat_ptracer22_min        =   2.9140091179778639E-06
(PID.TID 0000.0001) %MON trcstat_ptracer22_mean       =   1.1181316104301774E-03
(PID.TID 0000.0001) %MON trcstat_ptracer22_sd         =   9.3597066147928423E-03
(PID.TID 0000.0001) %MON trcstat_ptracer22_del2       =   1.0524259254555657E-05
(PID.TID 0000.0001) %MON trcstat_ptracer23_max        =   8.5242715673493485E-01
(PID.TID 0000.0001) %MON trcstat_ptracer23_min        =   3.0088831754695957E-06
(PID.TID 0000.0001) %MON trcstat_ptracer23_mean       =   1.1189203341649820E-03
(PID.TID 0000.0001) %MON trcstat_ptracer23_sd         =   9.3665145725122367E-03
(PID.TID 0000.0001) %MON trcstat_ptracer23_del2       =   1.0537674321565399E-05
(PID.TID 0000.0001) %MON trcstat_ptracer24_max        =   8.5059879636233959E-02
(PID.TID 0000.0001) %MON trcstat_ptracer24_min        =   3.1414691162352822E-07
(PID.TID 0000.0001) %MON trcstat_ptracer24_mean       =   1.1160222427597620E-04
(PID.TID 0000.0001) %MON trcstat_ptracer24_sd         =   9.3517051475960628E-04
(PID.TID 0000.0001) %MON trcstat_ptracer24_del2       =   1.0530079499414490E-06
(PID.TID 0000.0001) %MON trcstat_ptracer25_max        =   9.0301547394181680E-01
(PID.TID 0000.0001) %MON trcstat_ptracer25_min        =   3.1414691162352233E-06
(PID.TID 0000.0001) %MON trcstat_ptracer25_mean       =   1.1408392938461866E-03
(PID.TID 0000.0001) %MON trcstat_ptracer25_sd         =   9.5123284316023602E-03
(PID.TID 0000.0001) %MON trcstat_ptracer25_del2       =   1.0719867201633027E-05
(PID.TID 0000.0001) %MON trcstat_ptracer26_max        =   9.3519954690898621E-01
(PID.TID 0000.0001) %MON trcstat_ptracer26_min        =   3.3267571934341316E-06
(PID.TID 0000.0001) %MON trcstat_ptracer26_mean       =   1.1552700446217541E-03
(PID.TID 0000.0001) %MON trcstat_ptracer26_sd         =   9.6206989551952359E-03
(PID.TID 0000.0001) %MON trcstat_ptracer26_del2       =   1.0890228689360105E-05
(PID.TID 0000.0001) %MON trcstat_ptracer27_max        =   8.4441653092522120E-02
(PID.TID 0000.0001) %MON trcstat_ptracer27_min        =   3.3267571934341905E-07
(PID.TID 0000.0001) %MON trcstat_ptracer27_mean       =   1.1126969005429874E-04
(PID.TID 0000.0001) %MON trcstat_ptracer27_sd         =   9.3305441444328362E-04
(PID.TID 0000.0001) %MON trcstat_ptracer27_del2       =   1.0506407390999120E-06
(PID.TID 0000.0001) %MON trcstat_ptracer28_max        =   8.9266676440630199E-01
(PID.TID 0000.0001) %MON trcstat_ptracer28_min        =   3.3267571934341320E-06
(PID.TID 0000.0001) %MON trcstat_ptracer28_mean       =   1.1341068973530015E-03
(PID.TID 0000.0001) %MON trcstat_ptracer28_sd         =   9.4712082141002497E-03
(PID.TID 0000.0001) %MON trcstat_ptracer28_del2       =   1.0671986443518376E-05
(PID.TID 0000.0001) %MON trcstat_ptracer29_max        =   9.2294529096419220E-01
(PID.TID 0000.0001) %MON trcstat_ptracer29_min        =   3.5856961982324786E-06
(PID.TID 0000.0001) %MON trcstat_ptracer29_mean       =   1.1464792353017743E-03
(PID.TID 0000.0001) %MON trcstat_ptracer29_sd         =   9.5685104034309489E-03
(PID.TID 0000.0001) %MON trcstat_ptracer29_del2       =   1.0827250224112116E-05
(PID.TID 0000.0001) %MON trcstat_ptracer30_max        =   8.3977579856049894E-02
(PID.TID 0000.0001) %MON trcstat_ptracer30_min        =   3.5856961982325372E-07
(PID.TID 0000.0001) %MON trcstat_ptracer30_mean       =   1.1099056182402892E-04
(PID.TID 0000.0001) %MON trcstat_ptracer30_sd         =   9.3144132518715572E-04
(PID.TID 0000.0001) %MON trcstat_ptracer30_del2       =   1.0494186323977592E-06
(PID.TID 0000.0001) %MON trcstat_ptracer31_max        =   8.8184305897622040E-01
(PID.TID 0000.0001) %MON trcstat_ptracer31_min        =   3.5856961982324786E-06
(PID.TID 0000.0001) %MON trcstat_ptracer31_mean       =   1.1281494195516740E-03
(PID.TID 0000.0001) %MON trcstat_ptracer31_sd         =   9.4365540012156333E-03
(PID.TID 0000.0001) %MON trcstat_ptracer31_del2       =   1.0636636296229606E-05
(PID.TID 0000.0001) %MON trcstat_ptracer32_max        =   9.0910130413330781E-01
(PID.TID 0000.0001) %MON trcstat_ptracer32_min        =   3.9475619438300218E-06
(PID.TID 0000.0001) %MON trcstat_ptracer32_mean       =   1.1385963794381020E-03
(PID.TID 0000.0001) %MON trcstat_ptracer32_sd         =   9.5206337152702533E-03
(PID.TID 0000.0001) %MON trcstat_ptracer32_del2       =   1.0766033477849109E-05
(PID.TID 0000.0001) %MON trcstat_ptracer33_max        =   8.3527579738725502E-02
(PID.TID 0000.0001) %MON trcstat_ptracer33_min        =   3.9475619438300811E-07
(PID.TID 0000.0001) %MON trcstat_ptracer33_mean       =   1.1075135675372367E-04
(PID.TID 0000.0001) %MON trcstat_ptracer33_sd         =   9.3001860986695534E-04
(PID.TID 0000.0001) %MON trcstat_ptracer33_del2       =   1.0482629498016813E-06
(PID.TID 0000.0001) %MON trcstat_ptracer34_max        =   8.7092587709224301E-01
(PID.TID 0000.0001) %MON trcstat_ptracer34_min        =   3.9475619438300218E-06
(PID.TID 0000.0001) %MON trcstat_ptracer34_mean       =   1.1228885765521099E-03
(PID.TID 0000.0001) %MON trcstat_ptracer34_sd         =   9.4054209184238138E-03
(PID.TID 0000.0001) %MON trcstat_ptracer34_del2       =   1.0603923586722431E-05
(PID.TID 0000.0001) %MON trcstat_ptracer35_max        =   8.9381738324925697E-01
(PID.TID 0000.0001) %MON trcstat_ptracer35_min        =   4.4532672080440659E-06
(PID.TID 0000.0001) %MON trcstat_ptracer35_mean       =   1.1315950673768322E-03
(PID.TID 0000.0001) %MON trcstat_ptracer35_sd         =   9.4767756152971706E-03
(PID.TID 0000.0001) %MON trcstat_ptracer35_del2       =   1.0707499572300707E-05
(PID.TID 0000.0001) %MON trcstat_ptracer36_max        =   8.3078839442720140E-02
(PID.TID 0000.0001) %MON trcstat_ptracer36_min        =   4.4532672080441241E-07
(PID.TID 0000.0001) %MON trcstat_ptracer36_mean       =   1.1054751712612600E-04
(PID.TID 0000.0001) %MON trcstat_ptracer36_sd         =   9.2875628942067068E-04
(PID.TID 0000.0001) %MON trcstat_ptracer36_del2       =   1.0471435998735101E-06
(PID.TID 0000.0001) %MON trcstat_ptracer37_max        =   8.6000861680735197E-01
(PID.TID 0000.0001) %MON trcstat_ptracer37_min        =   4.4532672080440659E-06
(PID.TID 0000.0001) %MON trcstat_ptracer37_mean       =   1.1182905271995757E-03
(PID.TID 0000.0001) %MON trcstat_ptracer37_sd         =   9.3774102289699603E-03
(PID.TID 0000.0001) %MON trcstat_ptracer37_del2       =   1.0573162312650083E-05
(PID.TID 0000.0001) %MON trcstat_ptracer38_max        =   8.7743625987124174E-01
(PID.TID 0000.0001) %MON trcstat_ptracer38_min        =   4.7504327746563675E-06
(PID.TID 0000.0001) %MON trcstat_ptracer38_mean       =   1.1254361777056432E-03
(PID.TID 0000.0001) %MON trcstat_ptracer38_sd         =   9.4367654249609429E-03
(PID.TID 0000.0001) %MON trcstat_ptracer38_del2       =   1.0652907129981302E-05
(PID.TID 0000.0001) %MON trcstat_ptracer39_max        =   8.4915416601325866E-01
(PID.TID 0000.0001) %MON trcstat_ptracer39_min        =   4.7494089036854466E-06
(PID.TID 0000.0001) %MON trcstat_ptracer39_mean       =   1.1143003208213271E-03
(PID.TID 0000.0001) %MON trcstat_ptracer39_sd         =   9.3521180701451982E-03
(PID.TID 0000.0001) %MON trcstat_ptracer39_del2       =   1.0543963244247095E-05
(PID.TID 0000.0001) %MON trcstat_ptracer40_max        =   8.6091255526500843E-01
(PID.TID 0000.0001) %MON trcstat_ptracer40_min        =   4.7512012764712107E-06
(PID.TID 0000.0001) %MON trcstat_ptracer40_mean       =   1.1200965962858320E-03
(PID.TID 0000.0001) %MON trcstat_ptracer40_sd         =   9.4011225590760611E-03
(PID.TID 0000.0001) %MON trcstat_ptracer40_del2       =   1.0605765750579834E-05
(PID.TID 0000.0001) %MON trcstat_ptracer41_max        =   8.4379665938761783E-01
(PID.TID 0000.0001) %MON trcstat_ptracer41_min        =   4.7535930493743710E-06
(PID.TID 0000.0001) %MON trcstat_ptracer41_mean       =   1.1154553840848739E-03
(PID.TID 0000.0001) %MON trcstat_ptracer41_sd         =   9.3675193942890315E-03
(PID.TID 0000.0001) %MON trcstat_ptracer41_del2       =   1.0558148524911346E-05
(PID.TID 0000.0001) %MON trcstat_ptracer42_max        =   8.3414930373083696E-01
(PID.TID 0000.0001) %MON trcstat_ptracer42_min        =   4.7577660800722326E-06
(PID.TID 0000.0001) %MON trcstat_ptracer42_mean       =   1.1114902400884297E-03
(PID.TID 0000.0001) %MON trcstat_ptracer42_sd         =   9.3367473091536049E-03
(PID.TID 0000.0001) %MON trcstat_ptracer42_del2       =   1.0513934708942139E-05
(PID.TID 0000.0001) %MON trcstat_ptracer43_max        =   8.3762394721012023E-01
(PID.TID 0000.0001) %MON trcstat_ptracer43_min        =   4.7641210844446716E-06
(PID.TID 0000.0001) %MON trcstat_ptracer43_mean       =   1.1081353128672034E-03
(PID.TID 0000.0001) %MON trcstat_ptracer43_sd         =   9.3082985605880339E-03
(PID.TID 0000.0001) %MON trcstat_ptracer43_del2       =   1.0472013386067514E-05
(PID.TID 0000.0001) %MON trcstat_ptracer44_max        =   8.2846054205281350E-01
(PID.TID 0000.0001) %MON trcstat_ptracer44_min        =   2.5229506466524751E-06
(PID.TID 0000.0001) %MON trcstat_ptracer44_mean       =   1.1047900225065715E-03
(PID.TID 0000.0001) %MON trcstat_ptracer44_sd         =   9.3002763648116528E-03
(PID.TID 0000.0001) %MON trcstat_ptracer44_del2       =   1.0524446545498252E-05
(PID.TID 0000.0001) %MON trcstat_ptracer45_max        =   8.2745733993509440E-01
(PID.TID 0000.0001) %MON trcstat_ptracer45_min        =   2.5229506466524586E-06
(PID.TID 0000.0001) %MON trcstat_ptracer45_mean       =   1.1047616202094724E-03
(PID.TID 0000.0001) %MON trcstat_ptracer45_sd         =   9.2992685417820214E-03
(PID.TID 0000.0001) %MON trcstat_ptracer45_del2       =   1.0519842767680892E-05
(PID.TID 0000.0001) %MON trcstat_ptracer46_max        =   8.2662689958996427E-01
(PID.TID 0000.0001) %MON trcstat_ptracer46_min        =   2.5229506466524446E-06
(PID.TID 0000.0001) %MON trcstat_ptracer46_mean       =   1.1047381090814668E-03
(PID.TID 0000.0001) %MON trcstat_ptracer46_sd         =   9.2984344916332250E-03
(PID.TID 0000.0001) %MON trcstat_ptracer46_del2       =   1.0516033959073594E-05
(PID.TID 0000.0001) %MON trcstat_ptracer47_max        =   8.2593946965472065E-01
(PID.TID 0000.0001) %MON trcstat_ptracer47_min        =   2.5229506466524336E-06
(PID.TID 0000.0001) %MON trcstat_ptracer47_mean       =   1.1047186468126880E-03
(PID.TID 0000.0001) %MON trcstat_ptracer47_sd         =   9.2977442211382919E-03
(PID.TID 0000.0001) %MON trcstat_ptracer47_del2       =   1.0512882542297310E-05
(PID.TID 0000.0001) %MON trcstat_ptracer48_max        =   8.2579087483740610E-01
(PID.TID 0000.0001) %MON trcstat_ptracer48_min        =   2.5229506466524336E-06
(PID.TID 0000.0001) %MON trcstat_ptracer48_mean       =   1.1047169038027847E-03
(PID.TID 0000.0001) %MON trcstat_ptracer48_sd         =   9.2976626723350522E-03
(PID.TID 0000.0001) %MON trcstat_ptracer48_del2       =   1.0512412797755329E-05
(PID.TID 0000.0001) %MON trcstat_ptracer49_max        =   8.2877041277472008E-01
(PID.TID 0000.0001) %MON trcstat_ptracer49_min        =   2.5229506466525450E-06
(PID.TID 0000.0001) %MON trcstat_ptracer49_mean       =   1.1048540314225295E-03
(PID.TID 0000.0001) %MON trcstat_ptracer49_sd         =   9.3020470107703021E-03
(PID.TID 0000.0001) %MON trcstat_ptracer49_del2       =   1.0530149489613514E-05
(PID.TID 0000.0001) %MON trcstat_ptracer50_max        =   8.2771384771622925E-01
(PID.TID 0000.0001) %MON trcstat_ptracer50_min        =   2.5229506466525162E-06
(PID.TID 0000.0001) %MON trcstat_ptracer50_mean       =   1.1048146061285822E-03
(PID.TID 0000.0001) %MON trcstat_ptracer50_sd         =   9.3007339519468723E-03
(PID.TID 0000.0001) %MON trcstat_ptracer50_del2       =   1.0524561958109700E-05
(PID.TID 0000.0001) %MON trcstat_ptracer51_max        =   8.2683923408022486E-01
(PID.TID 0000.0001) %MON trcstat_ptracer51_min        =   2.5229506466524925E-06
(PID.TID 0000.0001) %MON trcstat_ptracer51_mean       =   1.1047819702777071E-03
(PID.TID 0000.0001) %MON trcstat_ptracer51_sd         =   9.2996473289676407E-03
(PID.TID 0000.0001) %MON trcstat_ptracer51_del2       =   1.0519939325132586E-05
(PID.TID 0000.0001) %MON trcstat_ptracer52_max        =   8.2611523795131858E-01
(PID.TID 0000.0001) %MON trcstat_ptracer52_min        =   2.5229506466524730E-06
(PID.TID 0000.0001) %MON trcstat_ptracer52_mean       =   1.1047549546576376E-03
(PID.TID 0000.0001) %MON trcstat_ptracer52_sd         =   9.2987480486236909E-03
(PID.TID 0000.0001) %MON trcstat_ptracer52_del2       =   1.0516114587877861E-05
(PID.TID 0000.0001) %MON trcstat_ptracer53_max        =   8.2535757642517837E-01
(PID.TID 0000.0001) %MON trcstat_ptracer53_min        =   2.5229506466524493E-06
(PID.TID 0000.0001) %MON trcstat_ptracer53_mean       =   1.1047243682955716E-03
(PID.TID 0000.0001) %MON trcstat_ptracer53_sd         =   9.2977483412986974E-03
(PID.TID 0000.0001) %MON trcstat_ptracer53_del2       =   1.0511952179967023E-05
(PID.TID 0000.0001) %MON trcstat_ptracer54_max        =   8.2351518974732474E-01
(PID.TID 0000.0001) %MON trcstat_ptracer54_min        =   2.5229506466523934E-06
(PID.TID 0000.0001) %MON trcstat_ptracer54_mean       =   1.1046500114729474E-03
(PID.TID 0000.0001) %MON trcstat_ptracer54_sd         =   9.2953109912999148E-03
(PID.TID 0000.0001) %MON trcstat_ptracer54_del2       =   1.0501779490686406E-05
(PID.TID 0000.0001) %MON trcstat_ptracer55_max        =   8.2336362840595811E-01
(PID.TID 0000.0001) %MON trcstat_ptracer55_min        =   2.5229506466523908E-06
(PID.TID 0000.0001) %MON trcstat_ptracer55_mean       =   1.1046457205228274E-03
(PID.TID 0000.0001) %MON trcstat_ptracer55_sd         =   9.2951589256927807E-03
(PID.TID 0000.0001) %MON trcstat_ptracer55_del2       =   1.0501085902984138E-05
(PID.TID 0000.0001) %MON trcstat_ptracer56_max        =   8.2323816749393475E-01
(PID.TID 0000.0001) %MON trcstat_ptracer56_min        =   2.5229506466523887E-06
(PID.TID 0000.0001) %MON trcstat_ptracer56_mean       =   1.1046421685186661E-03
(PID.TID 0000.0001) %MON trcstat_ptracer56_sd         =   9.2950330522763545E-03
(PID.TID 0000.0001) %MON trcstat_ptracer56_del2       =   1.0500511807616444E-05
(PID.TID 0000.0001) %MON trcstat_ptracer57_max        =   8.2313431224757827E-01
(PID.TID 0000.0001) %MON trcstat_ptracer57_min        =   2.5229506466523870E-06
(PID.TID 0000.0001) %MON trcstat_ptracer57_mean       =   1.1046392282063301E-03
(PID.TID 0000.0001) %MON trcstat_ptracer57_sd         =   9.2949288589357169E-03
(PID.TID 0000.0001) %MON trcstat_ptracer57_del2       =   1.0500036611235927E-05
(PID.TID 0000.0001) %MON trcstat_ptracer58_max        =   2.2089957559722423E-01
(PID.TID 0000.0001) %MON trcstat_ptracer58_min        =   2.6574702727229348E-07
(PID.TID 0000.0001) %MON trcstat_ptracer58_mean       =   2.0376847063996524E-04
(PID.TID 0000.0001) %MON trcstat_ptracer58_sd         =   1.9880659658314862E-03
(PID.TID 0000.0001) %MON trcstat_ptracer58_del2       =   2.2935854899570940E-06
(PID.TID 0000.0001) %MON trcstat_ptracer59_max        =   2.2122024854981251E-01
(PID.TID 0000.0001) %MON trcstat_ptracer59_min        =   2.8208709020172618E-07
(PID.TID 0000.0001) %MON trcstat_ptracer59_mean       =   2.0797401372849920E-04
(PID.TID 0000.0001) %MON trcstat_ptracer59_sd         =   2.0143586500904727E-03
(PID.TID 0000.0001) %MON trcstat_ptracer59_del2       =   2.3167322640976107E-06
(PID.TID 0000.0001) %MON trcstat_ptracer60_max        =   2.2148119578839354E-01
(PID.TID 0000.0001) %MON trcstat_ptracer60_min        =   2.9862521073111946E-07
(PID.TID 0000.0001) %MON trcstat_ptracer60_mean       =   2.1211333727795301E-04
(PID.TID 0000.0001) %MON trcstat_ptracer60_sd         =   2.0403046301326923E-03
(PID.TID 0000.0001) %MON trcstat_ptracer60_del2       =   2.3397190606756353E-06
(PID.TID 0000.0001) %MON trcstat_ptracer61_max        =   2.2168320331235089E-01
(PID.TID 0000.0001) %MON trcstat_ptracer61_min        =   3.1571127448555918E-07
(PID.TID 0000.0001) %MON trcstat_ptracer61_mean       =   2.1615934157313211E-04
(PID.TID 0000.0001) %MON trcstat_ptracer61_sd         =   2.0658288376751047E-03
(PID.TID 0000.0001) %MON trcstat_ptracer61_del2       =   2.3625514595137084E-06
(PID.TID 0000.0001) %MON trcstat_ptracer62_max        =   2.2154155095915267E-02
(PID.TID 0000.0001) %MON trcstat_ptracer62_min        =   2.9317715373820157E-08
(PID.TID 0000.0001) %MON trcstat_ptracer62_mean       =   2.1199156424261082E-05
(PID.TID 0000.0001) %MON trcstat_ptracer62_sd         =   2.0424253022492109E-04
(PID.TID 0000.0001) %MON trcstat_ptracer62_del2       =   2.3437896565990123E-07
(PID.TID 0000.0001) %MON trcstat_ptracer63_max        =   2.2279537631341839E-01
(PID.TID 0000.0001) %MON trcstat_ptracer63_min        =   6.7937313950283463E-07
(PID.TID 0000.0001) %MON trcstat_ptracer63_mean       =   2.7001730770447583E-04
(PID.TID 0000.0001) %MON trcstat_ptracer63_sd         =   2.3924390943576277E-03
(PID.TID 0000.0001) %MON trcstat_ptracer63_del2       =   2.6716872770756304E-06
(PID.TID 0000.0001) %MON trcstat_ptracer64_max        =   2.2291154653045356E-01
(PID.TID 0000.0001) %MON trcstat_ptracer64_min        =   9.4176448381727493E-07
(PID.TID 0000.0001) %MON trcstat_ptracer64_mean       =   2.9843034666206269E-04
(PID.TID 0000.0001) %MON trcstat_ptracer64_sd         =   2.5696250942509047E-03
(PID.TID 0000.0001) %MON trcstat_ptracer64_del2       =   2.8745548268254838E-06
(PID.TID 0000.0001) %MON trcstat_ptracer65_max        =   2.2110153412619207E-02
(PID.TID 0000.0001) %MON trcstat_ptracer65_min        =   2.5205594673725954E-08
(PID.TID 0000.0001) %MON trcstat_ptracer65_mean       =   2.0274264603841672E-05
(PID.TID 0000.0001) %MON trcstat_ptracer65_sd         =   1.9861976695796134E-04
(PID.TID 0000.0001) %MON trcstat_ptracer65_del2       =   2.2959399656413445E-07
(PID.TID 0000.0001) %MON trcstat_ptracer66_max        =   2.2252354372194161E-01
(PID.TID 0000.0001) %MON trcstat_ptracer66_min        =   6.0902655960730177E-07
(PID.TID 0000.0001) %MON trcstat_ptracer66_mean       =   2.6136930252830065E-04
(PID.TID 0000.0001) %MON trcstat_ptracer66_sd         =   2.3420864206198022E-03
(PID.TID 0000.0001) %MON trcstat_ptracer66_del2       =   2.6211251942093644E-06
(PID.TID 0000.0001) %MON trcstat_ptracer67_max        =   2.2276663081144701E-01
(PID.TID 0000.0001) %MON trcstat_ptracer67_min        =   8.8774031523285202E-07
(PID.TID 0000.0001) %MON trcstat_ptracer67_mean       =   2.9064655270981014E-04
(PID.TID 0000.0001) %MON trcstat_ptracer67_sd         =   2.5245109526537629E-03
(PID.TID 0000.0001) %MON trcstat_ptracer67_del2       =   2.8239513342318154E-06
(PID.TID 0000.0001) %MON trcstat_ptracer68_max        =   2.2089672177035412E-02
(PID.TID 0000.0001) %MON trcstat_ptracer68_min        =   2.1591797849310712E-08
(PID.TID 0000.0001) %MON trcstat_ptracer68_mean       =   1.9352405846177978E-05
(PID.TID 0000.0001) %MON trcstat_ptracer68_sd         =   1.9299364770624533E-04
(PID.TID 0000.0001) %MON trcstat_ptracer68_del2       =   2.2497479493682978E-07
(PID.TID 0000.0001) %MON trcstat_ptracer69_max        =   2.2230433007385414E-01
(PID.TID 0000.0001) %MON trcstat_ptracer69_min        =   5.4245052371633130E-07
(PID.TID 0000.0001) %MON trcstat_ptracer69_mean       =   2.5262005659209202E-04
(PID.TID 0000.0001) %MON trcstat_ptracer69_sd         =   2.2914231261075197E-03
(PID.TID 0000.0001) %MON trcstat_ptracer69_del2       =   2.5726145628457355E-06
(PID.TID 0000.0001) %MON trcstat_ptracer70_max        =   2.2263504055164832E-01
(PID.TID 0000.0001) %MON trcstat_ptracer70_min        =   8.1782004375453631E-07
(PID.TID 0000.0001) %MON trcstat_ptracer70_mean       =   2.8274272807429221E-04
(PID.TID 0000.0001) %MON trcstat_ptracer70_sd         =   2.4784744797095434E-03
(PID.TID 0000.0001) %MON trcstat_ptracer70_del2       =   2.7727150747331650E-06
(PID.TID 0000.0001) %MON trcstat_ptracer71_max        =   2.2081870552163624E-02
(PID.TID 0000.0001) %MON trcstat_ptracer71_min        =   1.8433240091604225E-08
(PID.TID 0000.0001) %MON trcstat_ptracer71_mean       =   1.8434518418648162E-05
(PID.TID 0000.0001) %MON trcstat_ptracer71_sd         =   1.8732326922443057E-04
(PID.TID 0000.0001) %MON trcstat_ptracer71_del2       =   2.2035644566394610E-07
(PID.TID 0000.0001) %MON trcstat_ptracer72_max        =   2.2221329291469991E-01
(PID.TID 0000.0001) %MON trcstat_ptracer72_min        =   4.7997981296069724E-07
(PID.TID 0000.0001) %MON trcstat_ptracer72_mean       =   2.4376775545786305E-04
(PID.TID 0000.0001) %MON trcstat_ptracer72_sd         =   2.2397542495283741E-03
(PID.TID 0000.0001) %MON trcstat_ptracer72_del2       =   2.5240772051123635E-06
(PID.TID 0000.0001) %MON trcstat_ptracer73_max        =   2.2264880093287576E-01
(PID.TID 0000.0001) %MON trcstat_ptracer73_min        =   7.4699472438201157E-07
(PID.TID 0000.0001) %MON trcstat_ptracer73_mean       =   2.7470628792338473E-04
(PID.TID 0000.0001) %MON trcstat_ptracer73_sd         =   2.4313687010150669E-03
(PID.TID 0000.0001) %MON trcstat_ptracer73_del2       =   2.7210859929640900E-06
(PID.TID 0000.0001) %MON trcstat_ptracer74_max        =   2.2070154203917482E-02
(PID.TID 0000.0001) %MON trcstat_ptracer74_min        =   1.5685863137464314E-08
(PID.TID 0000.0001) %MON trcstat_ptracer74_mean       =   1.7523228657991065E-05
(PID.TID 0000.0001) %MON trcstat_ptracer74_sd         =   1.8162551080102936E-04
(PID.TID 0000.0001) %MON trcstat_ptracer74_del2       =   2.1574455603394546E-07
(PID.TID 0000.0001) %MON trcstat_ptracer75_max        =   2.2214576928290178E-01
(PID.TID 0000.0001) %MON trcstat_ptracer75_min        =   4.2191816040695407E-07
(PID.TID 0000.0001) %MON trcstat_ptracer75_mean       =   2.3482551237578324E-04
(PID.TID 0000.0001) %MON trcstat_ptracer75_sd         =   2.1870563945652522E-03
(PID.TID 0000.0001) %MON trcstat_ptracer75_del2       =   2.4755043519441652E-06
(PID.TID 0000.0001) %MON trcstat_ptracer76_max        =   2.2264346942644081E-01
(PID.TID 0000.0001) %MON trcstat_ptracer76_min        =   6.7680699409284803E-07
(PID.TID 0000.0001) %MON trcstat_ptracer76_mean       =   2.6653074554539220E-04
(PID.TID 0000.0001) %MON trcstat_ptracer76_sd         =   2.3831198287747437E-03
(PID.TID 0000.0001) %MON trcstat_ptracer76_del2       =   2.6693714396693823E-06
(PID.TID 0000.0001) %MON trcstat_ptracer77_max        =   2.2204363581938996E-01
(PID.TID 0000.0001) %MON trcstat_ptracer77_min        =   3.6847790603262734E-07
(PID.TID 0000.0001) %MON trcstat_ptracer77_mean       =   2.2580424498905264E-04
(PID.TID 0000.0001) %MON trcstat_ptracer77_sd         =   2.1333211748258041E-03
(PID.TID 0000.0001) %MON trcstat_ptracer77_del2       =   2.4268516928615965E-06
(PID.TID 0000.0001) %MON trcstat_ptracer78_max        =   2.2266696076275383E-01
(PID.TID 0000.0001) %MON trcstat_ptracer78_min        =   6.0806495404490723E-07
(PID.TID 0000.0001) %MON trcstat_ptracer78_mean       =   2.5822078553067027E-04
(PID.TID 0000.0001) %MON trcstat_ptracer78_sd         =   2.3338532793940811E-03
(PID.TID 0000.0001) %MON trcstat_ptracer78_del2       =   2.6183033566570696E-06
(PID.TID 0000.0001) %MON trcstat_ptracer79_max        =   2.2260460178871680E-01
(PID.TID 0000.0001) %MON trcstat_ptracer79_min        =   5.4155566659566453E-07
(PID.TID 0000.0001) %MON trcstat_ptracer79_mean       =   2.4976293777666909E-04
(PID.TID 0000.0001) %MON trcstat_ptracer79_sd         =   2.2830385042756788E-03
(PID.TID 0000.0001) %MON trcstat_ptracer79_del2       =   2.5663486354163601E-06
(PID.TID 0000.0001) %MON trcstat_ptracer80_max        =   2.2251990409699524E-01
(PID.TID 0000.0001) %MON trcstat_ptracer80_min        =   4.7796678366606141E-07
(PID.TID 0000.0001) %MON trcstat_ptracer80_mean       =   2.4117125873283655E-04
(PID.TID 0000.0001) %MON trcstat_ptracer80_sd         =   2.2309114468251332E-03
(PID.TID 0000.0001) %MON trcstat_ptracer80_del2       =   2.5143275868587331E-06
(PID.TID 0000.0001) %MON trcstat_ptracer81_max        =   2.2241030643560633E-01
(PID.TID 0000.0001) %MON trcstat_ptracer81_min        =   4.1783336237626331E-07
(PID.TID 0000.0001) %MON trcstat_ptracer81_mean       =   2.3245321833440747E-04
(PID.TID 0000.0001) %MON trcstat_ptracer81_sd         =   2.1774248641331204E-03
(PID.TID 0000.0001) %MON trcstat_ptracer81_del2       =   2.4620359282028820E-06
(PID.TID 0000.0001) // =======================================================
(PID.TID 0000.0001) // End MONITOR ptracers field statistics
(PID.TID 0000.0001) // =======================================================
 Compute Stats, Diag. #   1233  PP        vol(   0 ): 1.326E+18  Parms: SM P    MR      
 Compute Stats, Diag. #   1234  Nfix      vol(   0 ): 1.326E+18  Parms: SM P    MR      
 Compute Stats, Diag. #   1235  Denit     vol(   0 ): 1.326E+18  Parms: SM P    MR      
(PID.TID 0000.0001) // =======================================================
(PID.TID 0000.0001) // Begin MONITOR EXF statistics
(PID.TID 0000.0001) // =======================================================
(PID.TID 0000.0001) %MON exf_tsnumber                 =                     1
(PID.TID 0000.0001) %MON exf_time_sec                 =   1.0800000000000000E+04
(PID.TID 0000.0001) %MON exf_ustress_max              =   0.0000000000000000E+00
(PID.TID 0000.0001) %MON exf_ustress_min              =   0.0000000000000000E+00
(PID.TID 0000.0001) %MON exf_ustress_mean             =   0.0000000000000000E+00
(PID.TID 0000.0001) %MON exf_ustress_sd               =   0.0000000000000000E+00
(PID.TID 0000.0001) %MON exf_ustress_del2             =   0.0000000000000000E+00
(PID.TID 0000.0001) %MON exf_vstress_max              =   0.0000000000000000E+00
(PID.TID 0000.0001) %MON exf_vstress_min              =   0.0000000000000000E+00
(PID.TID 0000.0001) %MON exf_vstress_mean             =   0.0000000000000000E+00
(PID.TID 0000.0001) %MON exf_vstress_sd               =   0.0000000000000000E+00
(PID.TID 0000.0001) %MON exf_vstress_del2             =   0.0000000000000000E+00
(PID.TID 0000.0001) %MON exf_hflux_max                =   0.0000000000000000E+00
(PID.TID 0000.0001) %MON exf_hflux_min                =   0.0000000000000000E+00
(PID.TID 0000.0001) %MON exf_hflux_mean               =   0.0000000000000000E+00
(PID.TID 0000.0001) %MON exf_hflux_sd                 =   0.0000000000000000E+00
(PID.TID 0000.0001) %MON exf_hflux_del2               =   0.0000000000000000E+00
(PID.TID 0000.0001) %MON exf_sflux_max                =   0.0000000000000000E+00
(PID.TID 0000.0001) %MON exf_sflux_min                =   0.0000000000000000E+00
(PID.TID 0000.0001) %MON exf_sflux_mean               =   0.0000000000000000E+00
(PID.TID 0000.0001) %MON exf_sflux_sd                 =   0.0000000000000000E+00
(PID.TID 0000.0001) %MON exf_sflux_del2               =   0.0000000000000000E+00
(PID.TID 0000.0001) %MON exf_uwind_max                =   0.0000000000000000E+00
(PID.TID 0000.0001) %MON exf_uwind_min                =   0.0000000000000000E+00
(PID.TID 0000.0001) %MON exf_uwind_mean               =   0.0000000000000000E+00
(PID.TID 0000.0001) %MON exf_uwind_sd                 =   0.0000000000000000E+00
(PID.TID 0000.0001) %MON exf_uwind_del2               =   0.0000000000000000E+00
(PID.TID 0000.0001) %MON exf_vwind_max                =   0.0000000000000000E+00
(PID.TID 0000.0001) %MON exf_vwind_min                =   0.0000000000000000E+00
(PID.TID 0000.0001) %MON exf_vwind_mean               =   0.0000000000000000E+00
(PID.TID 0000.0001) %MON exf_vwind_sd                 =   0.0000000000000000E+00
(PID.TID 0000.0001) %MON exf_vwind_del2               =   0.0000000000000000E+00
(PID.TID 0000.0001) %MON exf_wspeed_max               =   0.0000000000000000E+00
(PID.TID 0000.0001) %MON exf_wspeed_min               =   0.0000000000000000E+00
(PID.TID 0000.0001) %MON exf_wspeed_mean              =   0.0000000000000000E+00
(PID.TID 0000.0001) %MON exf_wspeed_sd                =   0.0000000000000000E+00
(PID.TID 0000.0001) %MON exf_wspeed_del2              =   0.0000000000000000E+00
(PID.TID 0000.0001) %MON exf_evap_max                 =   0.0000000000000000E+00
(PID.TID 0000.0001) %MON exf_evap_min                 =   0.0000000000000000E+00
(PID.TID 0000.0001) %MON exf_evap_mean                =   0.0000000000000000E+00
(PID.TID 0000.0001) %MON exf_evap_sd                  =   0.0000000000000000E+00
(PID.TID 0000.0001) %MON exf_evap_del2                =   0.0000000000000000E+00
(PID.TID 0000.0001) // =======================================================
(PID.TID 0000.0001) // End MONITOR EXF statistics
(PID.TID 0000.0001) // =======================================================
(PID.TID 0000.0001) // =======================================================
(PID.TID 0000.0001) // Begin MONITOR dynamic field statistics
(PID.TID 0000.0001) // =======================================================
(PID.TID 0000.0001) %MON time_tsnumber                =                     2
(PID.TID 0000.0001) %MON time_secondsf                =   2.1600000000000000E+04
(PID.TID 0000.0001) %MON dynstat_eta_max              =   0.0000000000000000E+00
(PID.TID 0000.0001) %MON dynstat_eta_min              =   0.0000000000000000E+00
(PID.TID 0000.0001) %MON dynstat_eta_mean             =   0.0000000000000000E+00
(PID.TID 0000.0001) %MON dynstat_eta_sd               =   0.0000000000000000E+00
(PID.TID 0000.0001) %MON dynstat_eta_del2             =   0.0000000000000000E+00
(PID.TID 0000.0001) %MON dynstat_uvel_max             =   7.8500951081514359E-01
(PID.TID 0000.0001) %MON dynstat_uvel_min             =  -8.1677708774805069E-01
(PID.TID 0000.0001) %MON dynstat_uvel_mean            =   2.3319899558026445E-03
(PID.TID 0000.0001) %MON dynstat_uvel_sd              =   2.2851955347877588E-02
(PID.TID 0000.0001) %MON dynstat_uvel_del2            =   2.5488694676996276E-05
(PID.TID 0000.0001) %MON dynstat_vvel_max             =   1.2975457906723022E+00
(PID.TID 0000.0001) %MON dynstat_vvel_min             =  -8.7210071552544832E-01
(PID.TID 0000.0001) %MON dynstat_vvel_mean            =  -1.7067523626689617E-05
(PID.TID 0000.0001) %MON dynstat_vvel_sd              =   1.1668763447103835E-02
(PID.TID 0000.0001) %MON dynstat_vvel_del2            =   2.3682690608332685E-05
(PID.TID 0000.0001) %MON dynstat_wvel_max             =   5.2057552784390282E-04
(PID.TID 0000.0001) %MON dynstat_wvel_min             =  -6.2682385032530874E-04
(PID.TID 0000.0001) %MON dynstat_wvel_mean            =   2.1811717532296686E-14
(PID.TID 0000.0001) %MON dynstat_wvel_sd              =   1.0274595867304234E-05
(PID.TID 0000.0001) %MON dynstat_wvel_del2            =   1.8906708750008405E-08
(PID.TID 0000.0001) %MON dynstat_theta_max            =   3.1811811208724976E+01
(PID.TID 0000.0001) %MON dynstat_theta_min            =  -2.6705707013607025E+00
(PID.TID 0000.0001) %MON dynstat_theta_mean           =   3.6068704244703964E+00
(PID.TID 0000.0001) %MON dynstat_theta_sd             =   4.4528579640392456E+00
(PID.TID 0000.0001) %MON dynstat_theta_del2           =   3.6279631749897674E-04
(PID.TID 0000.0001) %MON dynstat_salt_max             =   3.9533718109130859E+01
(PID.TID 0000.0001) %MON dynstat_salt_min             =   2.6509908676147461E+01
(PID.TID 0000.0001) %MON dynstat_salt_mean            =   3.4722156720417516E+01
(PID.TID 0000.0001) %MON dynstat_salt_sd              =   3.6501661205502578E-01
(PID.TID 0000.0001) %MON dynstat_salt_del2            =   6.9285532272240130E-05
(PID.TID 0000.0001) %MON dynstat_sst_max              =   3.1811811208724976E+01
(PID.TID 0000.0001) %MON dynstat_sst_min              =  -1.9905042946338654E+00
(PID.TID 0000.0001) %MON dynstat_sst_mean             =   1.9168948025841981E+01
(PID.TID 0000.0001) %MON dynstat_sst_sd               =   9.5447125080671000E+00
(PID.TID 0000.0001) %MON dynstat_sst_del2             =   2.1724405943826285E-03
(PID.TID 0000.0001) %MON dynstat_sss_max              =   3.9533718109130859E+01
(PID.TID 0000.0001) %MON dynstat_sss_min              =   2.6509908676147461E+01
(PID.TID 0000.0001) %MON dynstat_sss_mean             =   3.4861274121727504E+01
(PID.TID 0000.0001) %MON dynstat_sss_sd               =   1.0801334850452375E+00
(PID.TID 0000.0001) %MON dynstat_sss_del2             =   5.9642749467311688E-04
(PID.TID 0000.0001) %MON forcing_qnet_max             =   0.0000000000000000E+00
(PID.TID 0000.0001) %MON forcing_qnet_min             =   0.0000000000000000E+00
(PID.TID 0000.0001) %MON forcing_qnet_mean            =   0.0000000000000000E+00
(PID.TID 0000.0001) %MON forcing_qnet_sd              =   0.0000000000000000E+00
(PID.TID 0000.0001) %MON forcing_qnet_del2            =   0.0000000000000000E+00
(PID.TID 0000.0001) %MON forcing_qsw_max              =   0.0000000000000000E+00
(PID.TID 0000.0001) %MON forcing_qsw_min              =   0.0000000000000000E+00
(PID.TID 0000.0001) %MON forcing_qsw_mean             =   0.0000000000000000E+00
(PID.TID 0000.0001) %MON forcing_qsw_sd               =   0.0000000000000000E+00
(PID.TID 0000.0001) %MON forcing_qsw_del2             =   0.0000000000000000E+00
(PID.TID 0000.0001) %MON forcing_empmr_max            =   0.0000000000000000E+00
(PID.TID 0000.0001) %MON forcing_empmr_min            =   0.0000000000000000E+00
(PID.TID 0000.0001) %MON forcing_empmr_mean           =   0.0000000000000000E+00
(PID.TID 0000.0001) %MON forcing_empmr_sd             =   0.0000000000000000E+00
(PID.TID 0000.0001) %MON forcing_empmr_del2           =   0.0000000000000000E+00
(PID.TID 0000.0001) %MON forcing_fu_max               =   0.0000000000000000E+00
(PID.TID 0000.0001) %MON forcing_fu_min               =   0.0000000000000000E+00
(PID.TID 0000.0001) %MON forcing_fu_mean              =   0.0000000000000000E+00
(PID.TID 0000.0001) %MON forcing_fu_sd                =   0.0000000000000000E+00
(PID.TID 0000.0001) %MON forcing_fu_del2              =   0.0000000000000000E+00
(PID.TID 0000.0001) %MON forcing_fv_max               =   0.0000000000000000E+00
(PID.TID 0000.0001) %MON forcing_fv_min               =   0.0000000000000000E+00
(PID.TID 0000.0001) %MON forcing_fv_mean              =   0.0000000000000000E+00
(PID.TID 0000.0001) %MON forcing_fv_sd                =   0.0000000000000000E+00
(PID.TID 0000.0001) %MON forcing_fv_del2              =   0.0000000000000000E+00
(PID.TID 0000.0001) %MON advcfl_uvel_max              =   1.2905130879046875E-01
(PID.TID 0000.0001) %MON advcfl_vvel_max              =   1.2604616849753117E-01
(PID.TID 0000.0001) %MON advcfl_wvel_max              =   2.4987625336507335E-01
(PID.TID 0000.0001) %MON advcfl_W_hf_max              =   2.8111078503570752E-01
(PID.TID 0000.0001) %MON pe_b_mean                    =   0.0000000000000000E+00
(PID.TID 0000.0001) %MON ke_max                       =   6.8335447069307875E-01
(PID.TID 0000.0001) %MON ke_mean                      =   3.1834613624379300E-04
(PID.TID 0000.0001) %MON ke_vol                       =   1.3258927395735470E+18
(PID.TID 0000.0001) %MON vort_r_min                   =  -1.3250010937636551E-05
(PID.TID 0000.0001) %MON vort_r_max                   =   1.5933204468911676E-05
(PID.TID 0000.0001) %MON vort_a_mean                  =  -2.1443554611097619E-05
(PID.TID 0000.0001) %MON vort_a_sd                    =   7.3250397729609018E-05
(PID.TID 0000.0001) %MON vort_p_mean                  =  -2.3136237666213905E-05
(PID.TID 0000.0001) %MON vort_p_sd                    =   8.5528169644785089E-05
(PID.TID 0000.0001) %MON surfExpan_theta_mean         =  -5.5139914822221084E-08
(PID.TID 0000.0001) %MON surfExpan_salt_mean          =   6.9811319503682803E-09
(PID.TID 0000.0001) // =======================================================
(PID.TID 0000.0001) // End MONITOR dynamic field statistics
(PID.TID 0000.0001) // =======================================================
(PID.TID 0000.0001) // =======================================================
(PID.TID 0000.0001) // Begin MONITOR ptracer field statistics
(PID.TID 0000.0001) // =======================================================
(PID.TID 0000.0001) %MON trcstat_ptracer01_max        =   2.4045024362451322E+03
(PID.TID 0000.0001) %MON trcstat_ptracer01_min        =   1.8496630463085821E+03
(PID.TID 0000.0001) %MON trcstat_ptracer01_mean       =   2.2546508918762534E+03
(PID.TID 0000.0001) %MON trcstat_ptracer01_sd         =   7.8579999248798089E+01
(PID.TID 0000.0001) %MON trcstat_ptracer01_del2       =   6.2001469425890052E-03
(PID.TID 0000.0001) %MON trcstat_ptracer02_max        =   2.1576686467780872E+00
(PID.TID 0000.0001) %MON trcstat_ptracer02_min        =  -1.4674549579034435E-02
(PID.TID 0000.0001) %MON trcstat_ptracer02_mean       =   1.8708762778721620E-03
(PID.TID 0000.0001) %MON trcstat_ptracer02_sd         =   1.7947903197492121E-02
(PID.TID 0000.0001) %MON trcstat_ptracer02_del2       =   2.9053091318972015E-05
(PID.TID 0000.0001) %MON trcstat_ptracer03_max        =   3.0391165234063848E+00
(PID.TID 0000.0001) %MON trcstat_ptracer03_min        =  -6.5932039495617129E-08
(PID.TID 0000.0001) %MON trcstat_ptracer03_mean       =   5.8007442867444867E-03
(PID.TID 0000.0001) %MON trcstat_ptracer03_sd         =   2.4300057467280454E-02
(PID.TID 0000.0001) %MON trcstat_ptracer03_del2       =   2.8823988616964068E-05
(PID.TID 0000.0001) %MON trcstat_ptracer04_max        =   5.0682256123931076E+01
(PID.TID 0000.0001) %MON trcstat_ptracer04_min        =  -1.2968344311677107E-02
(PID.TID 0000.0001) %MON trcstat_ptracer04_mean       =   3.1007730954870325E+01
(PID.TID 0000.0001) %MON trcstat_ptracer04_sd         =   9.0052317137945614E+00
(PID.TID 0000.0001) %MON trcstat_ptracer04_del2       =   6.2468232639054154E-04
(PID.TID 0000.0001) %MON trcstat_ptracer05_max        =   3.7943688000189648E+00
(PID.TID 0000.0001) %MON trcstat_ptracer05_min        =   1.9658466899630380E-02
(PID.TID 0000.0001) %MON trcstat_ptracer05_mean       =   2.1762288304793165E+00
(PID.TID 0000.0001) %MON trcstat_ptracer05_sd         =   6.4448739944372868E-01
(PID.TID 0000.0001) %MON trcstat_ptracer05_del2       =   4.1934738297477403E-05
(PID.TID 0000.0001) %MON trcstat_ptracer06_max        =   2.6060231893938686E+02
(PID.TID 0000.0001) %MON trcstat_ptracer06_min        =   2.8179600551105577E-01
(PID.TID 0000.0001) %MON trcstat_ptracer06_mean       =   9.0810275886833026E+01
(PID.TID 0000.0001) %MON trcstat_ptracer06_sd         =   5.2139697861524027E+01
(PID.TID 0000.0001) %MON trcstat_ptracer06_del2       =   1.3197989365594060E-03
(PID.TID 0000.0001) %MON trcstat_ptracer07_max        =   1.0973857225610487E-03
(PID.TID 0000.0001) %MON trcstat_ptracer07_min        =   1.0719769835761500E-07
(PID.TID 0000.0001) %MON trcstat_ptracer07_mean       =   6.2098683587656167E-04
(PID.TID 0000.0001) %MON trcstat_ptracer07_sd         =   1.7821263877895201E-04
(PID.TID 0000.0001) %MON trcstat_ptracer07_del2       =   6.0464843490734248E-08
(PID.TID 0000.0001) %MON trcstat_ptracer08_max        =   5.2013502369798715E+01
(PID.TID 0000.0001) %MON trcstat_ptracer08_min        =  -5.5331209471055406E-05
(PID.TID 0000.0001) %MON trcstat_ptracer08_mean       =   2.2573351850935602E-01
(PID.TID 0000.0001) %MON trcstat_ptracer08_sd         =   1.3218514987225098E+00
(PID.TID 0000.0001) %MON trcstat_ptracer08_del2       =   1.2357081492769767E-03
(PID.TID 0000.0001) %MON trcstat_ptracer09_max        =   7.2690890607667704E+00
(PID.TID 0000.0001) %MON trcstat_ptracer09_min        =  -3.0177508371328390E-07
(PID.TID 0000.0001) %MON trcstat_ptracer09_mean       =   3.0312665878022584E-02
(PID.TID 0000.0001) %MON trcstat_ptracer09_sd         =   1.7794580777011026E-01
(PID.TID 0000.0001) %MON trcstat_ptracer09_del2       =   1.6692533787580950E-04
(PID.TID 0000.0001) %MON trcstat_ptracer10_max        =   4.3344585871704178E-01
(PID.TID 0000.0001) %MON trcstat_ptracer10_min        =  -1.9626328877152895E-08
(PID.TID 0000.0001) %MON trcstat_ptracer10_mean       =   1.8811126550516274E-03
(PID.TID 0000.0001) %MON trcstat_ptracer10_sd         =   1.1015429154043861E-02
(PID.TID 0000.0001) %MON trcstat_ptracer10_del2       =   1.0297567991250287E-05
(PID.TID 0000.0001) %MON trcstat_ptracer11_max        =   5.0402978213776018E-04
(PID.TID 0000.0001) %MON trcstat_ptracer11_min        =  -4.5962854311720104E-10
(PID.TID 0000.0001) %MON trcstat_ptracer11_mean       =   1.9079700827086382E-06
(PID.TID 0000.0001) %MON trcstat_ptracer11_sd         =   1.1234529348494842E-05
(PID.TID 0000.0001) %MON trcstat_ptracer11_del2       =   1.0608765949772285E-08
(PID.TID 0000.0001) %MON trcstat_ptracer12_max        =   1.3340280099528409E+03
(PID.TID 0000.0001) %MON trcstat_ptracer12_min        =   1.0004830549969614E-04
(PID.TID 0000.0001) %MON trcstat_ptracer12_mean       =   1.6643280229922963E-01
(PID.TID 0000.0001) %MON trcstat_ptracer12_sd         =   2.3077675537093523E+00
(PID.TID 0000.0001) %MON trcstat_ptracer12_del2       =   8.9765571054329209E-04
(PID.TID 0000.0001) %MON trcstat_ptracer13_max        =   1.8839032229026620E+02
(PID.TID 0000.0001) %MON trcstat_ptracer13_min        =   1.3346834338207308E-05
(PID.TID 0000.0001) %MON trcstat_ptracer13_mean       =   2.2531213386570447E-02
(PID.TID 0000.0001) %MON trcstat_ptracer13_sd         =   3.2847623970928641E-01
(PID.TID 0000.0001) %MON trcstat_ptracer13_del2       =   1.2334263387513427E-04
(PID.TID 0000.0001) %MON trcstat_ptracer14_max        =   1.1118701821815264E+01
(PID.TID 0000.0001) %MON trcstat_ptracer14_min        =   8.3373590111506525E-07
(PID.TID 0000.0001) %MON trcstat_ptracer14_mean       =   1.3869441287135797E-03
(PID.TID 0000.0001) %MON trcstat_ptracer14_sd         =   1.9233065764232449E-02
(PID.TID 0000.0001) %MON trcstat_ptracer14_del2       =   7.4804640421385547E-06
(PID.TID 0000.0001) %MON trcstat_ptracer15_max        =   1.2251630482676057E+02
(PID.TID 0000.0001) %MON trcstat_ptracer15_min        =   3.1080266151438746E-07
(PID.TID 0000.0001) %MON trcstat_ptracer15_mean       =   1.3525573303772095E-01
(PID.TID 0000.0001) %MON trcstat_ptracer15_sd         =   3.9848663777119536E-01
(PID.TID 0000.0001) %MON trcstat_ptracer15_del2       =   2.6672783125873179E-04
(PID.TID 0000.0001) %MON trcstat_ptracer16_max        =   1.2430031187273680E-02
(PID.TID 0000.0001) %MON trcstat_ptracer16_min        =   8.3461839719041318E-10
(PID.TID 0000.0001) %MON trcstat_ptracer16_mean       =   1.4294577785904023E-06
(PID.TID 0000.0001) %MON trcstat_ptracer16_sd         =   2.1838747053744776E-05
(PID.TID 0000.0001) %MON trcstat_ptracer16_del2       =   7.9634634870606937E-09
(PID.TID 0000.0001) %MON trcstat_ptracer17_max        =   3.9021171300862648E+02
(PID.TID 0000.0001) %MON trcstat_ptracer17_min        =   2.6300202023228797E-07
(PID.TID 0000.0001) %MON trcstat_ptracer17_mean       =   2.2836455324879157E-01
(PID.TID 0000.0001) %MON trcstat_ptracer17_sd         =   1.0016987861204401E+00
(PID.TID 0000.0001) %MON trcstat_ptracer17_del2       =   1.5343353910659704E-03
(PID.TID 0000.0001) %MON trcstat_ptracer18_max        =   2.4565659099915388E+03
(PID.TID 0000.0001) %MON trcstat_ptracer18_min        =   2.1803395097336888E+03
(PID.TID 0000.0001) %MON trcstat_ptracer18_mean       =   2.3632508351289712E+03
(PID.TID 0000.0001) %MON trcstat_ptracer18_sd         =   4.2540028908372861E+01
(PID.TID 0000.0001) %MON trcstat_ptracer18_del2       =   2.1511280319437835E-03
(PID.TID 0000.0001) %MON trcstat_ptracer19_max        =   4.0128102282376847E+02
(PID.TID 0000.0001) %MON trcstat_ptracer19_min        =   3.1119025226728665E+00
(PID.TID 0000.0001) %MON trcstat_ptracer19_mean       =   1.7468850640438063E+02
(PID.TID 0000.0001) %MON trcstat_ptracer19_sd         =   6.2905895016511067E+01
(PID.TID 0000.0001) %MON trcstat_ptracer19_del2       =   4.2464401004225164E-03
(PID.TID 0000.0001) %MON trcstat_ptracer20_max        =   8.3308751144300597E-01
(PID.TID 0000.0001) %MON trcstat_ptracer20_min        =   6.0686865816311280E-07
(PID.TID 0000.0001) %MON trcstat_ptracer20_mean       =   1.1254961276807550E-03
(PID.TID 0000.0001) %MON trcstat_ptracer20_sd         =   9.2989645639535261E-03
(PID.TID 0000.0001) %MON trcstat_ptracer20_del2       =   1.1313841511301283E-05
(PID.TID 0000.0001) %MON trcstat_ptracer21_max        =   8.4056631191629361E-01
(PID.TID 0000.0001) %MON trcstat_ptracer21_min        =   6.1122013416467660E-07
(PID.TID 0000.0001) %MON trcstat_ptracer21_mean       =   1.1278700699470232E-03
(PID.TID 0000.0001) %MON trcstat_ptracer21_sd         =   9.3169573873596902E-03
(PID.TID 0000.0001) %MON trcstat_ptracer21_del2       =   1.1346108577634745E-05
(PID.TID 0000.0001) %MON trcstat_ptracer22_max        =   8.4743888325142724E-01
(PID.TID 0000.0001) %MON trcstat_ptracer22_min        =   6.1732179338170276E-07
(PID.TID 0000.0001) %MON trcstat_ptracer22_mean       =   1.1299440979431925E-03
(PID.TID 0000.0001) %MON trcstat_ptracer22_sd         =   9.3330666999828643E-03
(PID.TID 0000.0001) %MON trcstat_ptracer22_del2       =   1.1375334854452381E-05
(PID.TID 0000.0001) %MON trcstat_ptracer23_max        =   8.5372422545645577E-01
(PID.TID 0000.0001) %MON trcstat_ptracer23_min        =   6.2590315214694742E-07
(PID.TID 0000.0001) %MON trcstat_ptracer23_mean       =   1.1315667914807653E-03
(PID.TID 0000.0001) %MON trcstat_ptracer23_sd         =   9.3467142305504926E-03
(PID.TID 0000.0001) %MON trcstat_ptracer23_del2       =   1.1402002392203591E-05
(PID.TID 0000.0001) %MON trcstat_ptracer24_max        =   8.5194547128976228E-02
(PID.TID 0000.0001) %MON trcstat_ptracer24_min        =   6.3798311978841971E-08
(PID.TID 0000.0001) %MON trcstat_ptracer24_mean       =   1.1256319498451586E-04
(PID.TID 0000.0001) %MON trcstat_ptracer24_sd         =   9.3161258082512266E-04
(PID.TID 0000.0001) %MON trcstat_ptracer24_del2       =   1.1387590902565911E-06
(PID.TID 0000.0001) %MON trcstat_ptracer25_max        =   9.2835481810935661E-01
(PID.TID 0000.0001) %MON trcstat_ptracer25_min        =   6.3815859017081469E-07
(PID.TID 0000.0001) %MON trcstat_ptracer25_mean       =   1.1782864060103030E-03
(PID.TID 0000.0001) %MON trcstat_ptracer25_sd         =   9.6612689375318844E-03
(PID.TID 0000.0001) %MON trcstat_ptracer25_del2       =   1.1803049263969772E-05
(PID.TID 0000.0001) %MON trcstat_ptracer26_max        =   9.7760348906270356E-01
(PID.TID 0000.0001) %MON trcstat_ptracer26_min        =   6.5528935032532154E-07
(PID.TID 0000.0001) %MON trcstat_ptracer26_mean       =   1.2111873623456449E-03
(PID.TID 0000.0001) %MON trcstat_ptracer26_sd         =   9.9246599144339146E-03
(PID.TID 0000.0001) %MON trcstat_ptracer26_del2       =   1.2245470904612917E-05
(PID.TID 0000.0001) %MON trcstat_ptracer27_max        =   8.4265890171376034E-02
(PID.TID 0000.0001) %MON trcstat_ptracer27_min        =   6.5501473385731241E-08
(PID.TID 0000.0001) %MON trcstat_ptracer27_mean       =   1.1188348125787733E-04
(PID.TID 0000.0001) %MON trcstat_ptracer27_sd         =   9.2729748627931878E-04
(PID.TID 0000.0001) %MON trcstat_ptracer27_del2       =   1.1338314548774904E-06
(PID.TID 0000.0001) %MON trcstat_ptracer28_max        =   9.1210715530767084E-01
(PID.TID 0000.0001) %MON trcstat_ptracer28_min        =   6.5520708086751965E-07
(PID.TID 0000.0001) %MON trcstat_ptracer28_mean       =   1.1637653407655967E-03
(PID.TID 0000.0001) %MON trcstat_ptracer28_sd         =   9.5699091349231800E-03
(PID.TID 0000.0001) %MON trcstat_ptracer28_del2       =   1.1696871293711004E-05
(PID.TID 0000.0001) %MON trcstat_ptracer29_max        =   9.6027527306750338E-01
(PID.TID 0000.0001) %MON trcstat_ptracer29_min        =   7.0219165891836640E-07
(PID.TID 0000.0001) %MON trcstat_ptracer29_mean       =   1.1912991002784024E-03
(PID.TID 0000.0001) %MON trcstat_ptracer29_sd         =   9.7971689617380505E-03
(PID.TID 0000.0001) %MON trcstat_ptracer29_del2       =   1.2083172409243724E-05
(PID.TID 0000.0001) %MON trcstat_ptracer30_max        =   8.3628233070494246E-02
(PID.TID 0000.0001) %MON trcstat_ptracer30_min        =   7.0188565786799380E-08
(PID.TID 0000.0001) %MON trcstat_ptracer30_mean       =   1.1131568915282967E-04
(PID.TID 0000.0001) %MON trcstat_ptracer30_sd         =   9.2402247592264703E-04
(PID.TID 0000.0001) %MON trcstat_ptracer30_del2       =   1.1312344762333917E-06
(PID.TID 0000.0001) %MON trcstat_ptracer31_max        =   8.9733312964931988E-01
(PID.TID 0000.0001) %MON trcstat_ptracer31_min        =   7.0209548628794330E-07
(PID.TID 0000.0001) %MON trcstat_ptracer31_mean       =   1.1510602451429417E-03
(PID.TID 0000.0001) %MON trcstat_ptracer31_sd         =   9.4942191020342785E-03
(PID.TID 0000.0001) %MON trcstat_ptracer31_del2       =   1.1618388523723323E-05
(PID.TID 0000.0001) %MON trcstat_ptracer32_max        =   9.4049791930337112E-01
(PID.TID 0000.0001) %MON trcstat_ptracer32_min        =   8.0464169699303808E-07
(PID.TID 0000.0001) %MON trcstat_ptracer32_mean       =   1.1737777984774165E-03
(PID.TID 0000.0001) %MON trcstat_ptracer32_sd         =   9.6840411543799750E-03
(PID.TID 0000.0001) %MON trcstat_ptracer32_del2       =   1.1930980533892287E-05
(PID.TID 0000.0001) %MON trcstat_ptracer33_max        =   8.3010938532887782E-02
(PID.TID 0000.0001) %MON trcstat_ptracer33_min        =   8.0430083323575873E-08
(PID.TID 0000.0001) %MON trcstat_ptracer33_mean       =   1.1083114902157986E-04
(PID.TID 0000.0001) %MON trcstat_ptracer33_sd         =   9.2115607131566986E-04
(PID.TID 0000.0001) %MON trcstat_ptracer33_del2       =   1.1287806129313901E-06
(PID.TID 0000.0001) %MON trcstat_ptracer34_max        =   8.8224771528042789E-01
(PID.TID 0000.0001) %MON trcstat_ptracer34_min        =   8.0452904611240699E-07
(PID.TID 0000.0001) %MON trcstat_ptracer34_mean       =   1.1399496562843985E-03
(PID.TID 0000.0001) %MON trcstat_ptracer34_sd         =   9.4274757360344272E-03
(PID.TID 0000.0001) %MON trcstat_ptracer34_del2       =   1.1545924174591981E-05
(PID.TID 0000.0001) %MON trcstat_ptracer35_max        =   9.1857856022748807E-01
(PID.TID 0000.0001) %MON trcstat_ptracer35_min        =   9.5974290779270341E-07
(PID.TID 0000.0001) %MON trcstat_ptracer35_mean       =   1.1584942142950549E-03
(PID.TID 0000.0001) %MON trcstat_ptracer35_sd         =   9.5838306135812169E-03
(PID.TID 0000.0001) %MON trcstat_ptracer35_del2       =   1.1790891560690250E-05
(PID.TID 0000.0001) %MON trcstat_ptracer36_max        =   8.2400870008908431E-02
(PID.TID 0000.0001) %MON trcstat_ptracer36_min        =   9.5936245140828196E-08
(PID.TID 0000.0001) %MON trcstat_ptracer36_mean       =   1.1041965957413016E-04
(PID.TID 0000.0001) %MON trcstat_ptracer36_sd         =   9.1862961928258031E-04
(PID.TID 0000.0001) %MON trcstat_ptracer36_del2       =   1.1264083932676931E-06
(PID.TID 0000.0001) %MON trcstat_ptracer37_max        =   8.6706029720641065E-01
(PID.TID 0000.0001) %MON trcstat_ptracer37_min        =   9.5961049356194362E-07
(PID.TID 0000.0001) %MON trcstat_ptracer37_mean       =   1.1303339460334862E-03
(PID.TID 0000.0001) %MON trcstat_ptracer37_sd         =   9.3684291053771646E-03
(PID.TID 0000.0001) %MON trcstat_ptracer37_del2       =   1.1478606904713401E-05
(PID.TID 0000.0001) %MON trcstat_ptracer38_max        =   8.9514310806749708E-01
(PID.TID 0000.0001) %MON trcstat_ptracer38_min        =   1.1997914442898708E-06
(PID.TID 0000.0001) %MON trcstat_ptracer38_mean       =   1.1452867416418466E-03
(PID.TID 0000.0001) %MON trcstat_ptracer38_sd         =   9.4952902821591970E-03
(PID.TID 0000.0001) %MON trcstat_ptracer38_del2       =   1.1664643114412216E-05
(PID.TID 0000.0001) %MON trcstat_ptracer39_max        =   8.5197267637572349E-01
(PID.TID 0000.0001) %MON trcstat_ptracer39_min        =   1.1996350418466561E-06
(PID.TID 0000.0001) %MON trcstat_ptracer39_mean       =   1.1220726003701646E-03
(PID.TID 0000.0001) %MON trcstat_ptracer39_sd         =   9.3160170036973213E-03
(PID.TID 0000.0001) %MON trcstat_ptracer39_del2       =   1.1416364763284502E-05
(PID.TID 0000.0001) %MON trcstat_ptracer40_max        =   8.7195695869319745E-01
(PID.TID 0000.0001) %MON trcstat_ptracer40_min        =   1.5807562592839958E-06
(PID.TID 0000.0001) %MON trcstat_ptracer40_mean       =   1.1340227371299297E-03
(PID.TID 0000.0001) %MON trcstat_ptracer40_sd         =   9.4185470018812879E-03
(PID.TID 0000.0001) %MON trcstat_ptracer40_del2       =   1.1558143924398837E-05
(PID.TID 0000.0001) %MON trcstat_ptracer41_max        =   8.4790024066106728E-01
(PID.TID 0000.0001) %MON trcstat_ptracer41_min        =   2.2016734203017802E-06
(PID.TID 0000.0001) %MON trcstat_ptracer41_mean       =   1.1243793479615422E-03
(PID.TID 0000.0001) %MON trcstat_ptracer41_sd         =   9.3481919242212868E-03
(PID.TID 0000.0001) %MON trcstat_ptracer41_del2       =   1.1454085262582573E-05
(PID.TID 0000.0001) %MON trcstat_ptracer42_max        =   8.3205752808993860E-01
(PID.TID 0000.0001) %MON trcstat_ptracer42_min        =   3.2316303777039734E-06
(PID.TID 0000.0001) %MON trcstat_ptracer42_mean       =   1.1162431646052323E-03
(PID.TID 0000.0001) %MON trcstat_ptracer42_sd         =   9.2851372576547072E-03
(PID.TID 0000.0001) %MON trcstat_ptracer42_del2       =   1.1359420372753065E-05
(PID.TID 0000.0001) %MON trcstat_ptracer43_max        =   8.3472834429733689E-01
(PID.TID 0000.0001) %MON trcstat_ptracer43_min        =   4.6635749667648264E-06
(PID.TID 0000.0001) %MON trcstat_ptracer43_mean       =   1.1094296008035108E-03
(PID.TID 0000.0001) %MON trcstat_ptracer43_sd         =   9.2279034753677876E-03
(PID.TID 0000.0001) %MON trcstat_ptracer43_del2       =   1.1271402235907013E-05
(PID.TID 0000.0001) %MON trcstat_ptracer44_max        =   8.2394100697770822E-01
(PID.TID 0000.0001) %MON trcstat_ptracer44_min        =   6.0291880565350213E-07
(PID.TID 0000.0001) %MON trcstat_ptracer44_mean       =   1.1027394575837386E-03
(PID.TID 0000.0001) %MON trcstat_ptracer44_sd         =   9.2106081591143141E-03
(PID.TID 0000.0001) %MON trcstat_ptracer44_del2       =   1.1369138091321504E-05
(PID.TID 0000.0001) %MON trcstat_ptracer45_max        =   8.2201941309014948E-01
(PID.TID 0000.0001) %MON trcstat_ptracer45_min        =   6.0291178494970748E-07
(PID.TID 0000.0001) %MON trcstat_ptracer45_mean       =   1.1026840294759885E-03
(PID.TID 0000.0001) %MON trcstat_ptracer45_sd         =   9.2086626484882989E-03
(PID.TID 0000.0001) %MON trcstat_ptracer45_del2       =   1.1360256544704103E-05
(PID.TID 0000.0001) %MON trcstat_ptracer46_max        =   8.2042411913221314E-01
(PID.TID 0000.0001) %MON trcstat_ptracer46_min        =   6.0290597328366524E-07
(PID.TID 0000.0001) %MON trcstat_ptracer46_mean       =   1.1026380815316911E-03
(PID.TID 0000.0001) %MON trcstat_ptracer46_sd         =   9.2070505631862108E-03
(PID.TID 0000.0001) %MON trcstat_ptracer46_del2       =   1.1352897064727911E-05
(PID.TID 0000.0001) %MON trcstat_ptracer47_max        =   8.1910020848635579E-01
(PID.TID 0000.0001) %MON trcstat_ptracer47_min        =   6.0290116244657765E-07
(PID.TID 0000.0001) %MON trcstat_ptracer47_mean       =   1.1025999927677691E-03
(PID.TID 0000.0001) %MON trcstat_ptracer47_sd         =   9.2057147638467292E-03
(PID.TID 0000.0001) %MON trcstat_ptracer47_del2       =   1.1346798592528282E-05
(PID.TID 0000.0001) %MON trcstat_ptracer48_max        =   8.1889037129940923E-01
(PID.TID 0000.0001) %MON trcstat_ptracer48_min        =   6.0290102345671549E-07
(PID.TID 0000.0001) %MON trcstat_ptracer48_mean       =   1.1025993041058940E-03
(PID.TID 0000.0001) %MON trcstat_ptracer48_sd         =   9.2056421328612099E-03
(PID.TID 0000.0001) %MON trcstat_ptracer48_del2       =   1.1346455780755125E-05
(PID.TID 0000.0001) %MON trcstat_ptracer49_max        =   8.2485569790661917E-01
(PID.TID 0000.0001) %MON trcstat_ptracer49_min        =   6.0294235808241197E-07
(PID.TID 0000.0001) %MON trcstat_ptracer49_mean       =   1.1028755419467844E-03
(PID.TID 0000.0001) %MON trcstat_ptracer49_sd         =   9.2143618502247681E-03
(PID.TID 0000.0001) %MON trcstat_ptracer49_del2       =   1.1382336841661974E-05
(PID.TID 0000.0001) %MON trcstat_ptracer50_max        =   8.2270599778498676E-01
(PID.TID 0000.0001) %MON trcstat_ptracer50_min        =   6.0293128140694877E-07
(PID.TID 0000.0001) %MON trcstat_ptracer50_mean       =   1.1027948860111653E-03
(PID.TID 0000.0001) %MON trcstat_ptracer50_sd         =   9.2117181939328045E-03
(PID.TID 0000.0001) %MON trcstat_ptracer50_del2       =   1.1370868750362619E-05
(PID.TID 0000.0001) %MON trcstat_ptracer51_max        =   8.2094942321249653E-01
(PID.TID 0000.0001) %MON trcstat_ptracer51_min        =   6.0292211224947612E-07
(PID.TID 0000.0001) %MON trcstat_ptracer51_mean       =   1.1027284522920771E-03
(PID.TID 0000.0001) %MON trcstat_ptracer51_sd         =   9.2095390988559192E-03
(PID.TID 0000.0001) %MON trcstat_ptracer51_del2       =   1.1361435697529084E-05
(PID.TID 0000.0001) %MON trcstat_ptracer52_max        =   8.1951041507054179E-01
(PID.TID 0000.0001) %MON trcstat_ptracer52_min        =   6.0291452211568271E-07
(PID.TID 0000.0001) %MON trcstat_ptracer52_mean       =   1.1026737209997902E-03
(PID.TID 0000.0001) %MON trcstat_ptracer52_sd         =   9.2077426664470257E-03
(PID.TID 0000.0001) %MON trcstat_ptracer52_del2       =   1.1353674210787220E-05
(PID.TID 0000.0001) %MON trcstat_ptracer53_max        =   8.1801329698619962E-01
(PID.TID 0000.0001) %MON trcstat_ptracer53_min        =   6.0290563535501807E-07
(PID.TID 0000.0001) %MON trcstat_ptracer53_mean       =   1.1026124476331506E-03
(PID.TID 0000.0001) %MON trcstat_ptracer53_sd         =   9.2057640386196404E-03
(PID.TID 0000.0001) %MON trcstat_ptracer53_del2       =   1.1345319446292944E-05
(PID.TID 0000.0001) %MON trcstat_ptracer54_max        =   8.1440151731847488E-01
(PID.TID 0000.0001) %MON trcstat_ptracer54_min        =   6.0288419662199941E-07
(PID.TID 0000.0001) %MON trcstat_ptracer54_mean       =   1.1024652133511061E-03
(PID.TID 0000.0001) %MON trcstat_ptracer54_sd         =   9.2009904833491689E-03
(PID.TID 0000.0001) %MON trcstat_ptracer54_del2       =   1.1325207831113960E-05
(PID.TID 0000.0001) %MON trcstat_ptracer55_max        =   8.1410011521435044E-01
(PID.TID 0000.0001) %MON trcstat_ptracer55_min        =   6.0288313595110810E-07
(PID.TID 0000.0001) %MON trcstat_ptracer55_mean       =   1.1024565578998621E-03
(PID.TID 0000.0001) %MON trcstat_ptracer55_sd         =   9.2006878097273433E-03
(PID.TID 0000.0001) %MON trcstat_ptracer55_del2       =   1.1323814053751457E-05
(PID.TID 0000.0001) %MON trcstat_ptracer56_max        =   8.1385188739872871E-01
(PID.TID 0000.0001) %MON trcstat_ptracer56_min        =   6.0288225793871028E-07
(PID.TID 0000.0001) %MON trcstat_ptracer56_mean       =   1.1024494309644563E-03
(PID.TID 0000.0001) %MON trcstat_ptracer56_sd         =   9.2004384509141481E-03
(PID.TID 0000.0001) %MON trcstat_ptracer56_del2       =   1.1322668782613281E-05
(PID.TID 0000.0001) %MON trcstat_ptracer57_max        =   8.1364756001150340E-01
(PID.TID 0000.0001) %MON trcstat_ptracer57_min        =   6.0288153112911271E-07
(PID.TID 0000.0001) %MON trcstat_ptracer57_mean       =   1.1024435599738293E-03
(PID.TID 0000.0001) %MON trcstat_ptracer57_sd         =   9.2002329414877862E-03
(PID.TID 0000.0001) %MON trcstat_ptracer57_del2       =   1.1321726779852486E-05
(PID.TID 0000.0001) %MON trcstat_ptracer58_max        =   2.1734855437938166E-01
(PID.TID 0000.0001) %MON trcstat_ptracer58_min        =   1.7932556851920970E-07
(PID.TID 0000.0001) %MON trcstat_ptracer58_mean       =   2.0545742896244869E-04
(PID.TID 0000.0001) %MON trcstat_ptracer58_sd         =   1.9662420432908318E-03
(PID.TID 0000.0001) %MON trcstat_ptracer58_del2       =   2.5454677906542714E-06
(PID.TID 0000.0001) %MON trcstat_ptracer59_max        =   2.1772311829427640E-01
(PID.TID 0000.0001) %MON trcstat_ptracer59_min        =   1.8079095850562562E-07
(PID.TID 0000.0001) %MON trcstat_ptracer59_mean       =   2.0981216267855813E-04
(PID.TID 0000.0001) %MON trcstat_ptracer59_sd         =   1.9934875424119508E-03
(PID.TID 0000.0001) %MON trcstat_ptracer59_del2       =   2.5710888180313306E-06
(PID.TID 0000.0001) %MON trcstat_ptracer60_max        =   2.1803675667926123E-01
(PID.TID 0000.0001) %MON trcstat_ptracer60_min        =   1.8276621692220966E-07
(PID.TID 0000.0001) %MON trcstat_ptracer60_mean       =   2.1406162900417626E-04
(PID.TID 0000.0001) %MON trcstat_ptracer60_sd         =   2.0202886456405045E-03
(PID.TID 0000.0001) %MON trcstat_ptracer60_del2       =   2.5964463418143545E-06
(PID.TID 0000.0001) %MON trcstat_ptracer61_max        =   2.1829735608618331E-01
(PID.TID 0000.0001) %MON trcstat_ptracer61_min        =   1.8546839432420867E-07
(PID.TID 0000.0001) %MON trcstat_ptracer61_mean       =   2.1815676976672958E-04
(PID.TID 0000.0001) %MON trcstat_ptracer61_sd         =   2.0465163442321471E-03
(PID.TID 0000.0001) %MON trcstat_ptracer61_del2       =   2.6216059993699500E-06
(PID.TID 0000.0001) %MON trcstat_ptracer62_max        =   2.1833824971369677E-02
(PID.TID 0000.0001) %MON trcstat_ptracer62_min        =   1.8889050143471963E-08
(PID.TID 0000.0001) %MON trcstat_ptracer62_mean       =   2.1330748580698003E-05
(PID.TID 0000.0001) %MON trcstat_ptracer62_sd         =   2.0212485787962143E-04
(PID.TID 0000.0001) %MON trcstat_ptracer62_del2       =   2.6023417879799102E-07
(PID.TID 0000.0001) %MON trcstat_ptracer63_max        =   2.1896963315155529E-01
(PID.TID 0000.0001) %MON trcstat_ptracer63_min        =   1.9059851090812657E-07
(PID.TID 0000.0001) %MON trcstat_ptracer63_mean       =   2.7647588491622925E-04
(PID.TID 0000.0001) %MON trcstat_ptracer63_sd         =   2.3981536479304095E-03
(PID.TID 0000.0001) %MON trcstat_ptracer63_del2       =   2.9692054002640511E-06
(PID.TID 0000.0001) %MON trcstat_ptracer64_max        =   2.3553412890645606E-01
(PID.TID 0000.0001) %MON trcstat_ptracer64_min        =   1.9615320378563644E-07
(PID.TID 0000.0001) %MON trcstat_ptracer64_mean       =   3.0903161964428231E-04
(PID.TID 0000.0001) %MON trcstat_ptracer64_sd         =   2.6075492895593182E-03
(PID.TID 0000.0001) %MON trcstat_ptracer64_del2       =   3.2318123773521730E-06
(PID.TID 0000.0001) %MON trcstat_ptracer65_max        =   2.1808269531135308E-02
(PID.TID 0000.0001) %MON trcstat_ptracer65_min        =   1.9350716309554875E-08
(PID.TID 0000.0001) %MON trcstat_ptracer65_mean       =   2.0348090976894867E-05
(PID.TID 0000.0001) %MON trcstat_ptracer65_sd         =   1.9627797130465928E-04
(PID.TID 0000.0001) %MON trcstat_ptracer65_del2       =   2.5508304001452354E-07
(PID.TID 0000.0001) %MON trcstat_ptracer66_max        =   2.1883521714768289E-01
(PID.TID 0000.0001) %MON trcstat_ptracer66_min        =   1.9552880848823585E-07
(PID.TID 0000.0001) %MON trcstat_ptracer66_mean       =   2.6602458606449832E-04
(PID.TID 0000.0001) %MON trcstat_ptracer66_sd         =   2.3388264050521745E-03
(PID.TID 0000.0001) %MON trcstat_ptracer66_del2       =   2.9088326712559217E-06
(PID.TID 0000.0001) %MON trcstat_ptracer67_max        =   2.2279957694352950E-01
(PID.TID 0000.0001) %MON trcstat_ptracer67_min        =   2.1035300901960229E-07
(PID.TID 0000.0001) %MON trcstat_ptracer67_mean       =   2.9836354931078745E-04
(PID.TID 0000.0001) %MON trcstat_ptracer67_sd         =   2.5462857791665023E-03
(PID.TID 0000.0001) %MON trcstat_ptracer67_del2       =   3.1606250140109633E-06
(PID.TID 0000.0001) %MON trcstat_ptracer68_max        =   2.1798670026675151E-02
(PID.TID 0000.0001) %MON trcstat_ptracer68_min        =   2.0853624916401887E-08
(PID.TID 0000.0001) %MON trcstat_ptracer68_mean       =   1.9382275950575909E-05
(PID.TID 0000.0001) %MON trcstat_ptracer68_sd         =   1.9053044070655570E-04
(PID.TID 0000.0001) %MON trcstat_ptracer68_del2       =   2.5027084567581199E-07
(PID.TID 0000.0001) %MON trcstat_ptracer69_max        =   2.1888516228434657E-01
(PID.TID 0000.0001) %MON trcstat_ptracer69_min        =   2.0991527774352860E-07
(PID.TID 0000.0001) %MON trcstat_ptracer69_mean       =   2.5576524127034661E-04
(PID.TID 0000.0001) %MON trcstat_ptracer69_sd         =   2.2813721174729695E-03
(PID.TID 0000.0001) %MON trcstat_ptracer69_del2       =   2.8535135689706879E-06
(PID.TID 0000.0001) %MON trcstat_ptracer70_max        =   2.1915541523432699E-01
(PID.TID 0000.0001) %MON trcstat_ptracer70_min        =   2.4091239694470814E-07
(PID.TID 0000.0001) %MON trcstat_ptracer70_mean       =   2.8800903717750639E-04
(PID.TID 0000.0001) %MON trcstat_ptracer70_sd         =   2.4867514507796611E-03
(PID.TID 0000.0001) %MON trcstat_ptracer70_del2       =   3.0910874443340665E-06
(PID.TID 0000.0001) %MON trcstat_ptracer71_max        =   2.1782932327116943E-02
(PID.TID 0000.0001) %MON trcstat_ptracer71_min        =   1.9128702646831241E-08
(PID.TID 0000.0001) %MON trcstat_ptracer71_mean       =   1.8430875430619216E-05
(PID.TID 0000.0001) %MON trcstat_ptracer71_sd         =   1.8477750954808212E-04
(PID.TID 0000.0001) %MON trcstat_ptracer71_del2       =   2.4545329680502838E-07
(PID.TID 0000.0001) %MON trcstat_ptracer72_max        =   2.1887813353316266E-01
(PID.TID 0000.0001) %MON trcstat_ptracer72_min        =   2.4023685551930125E-07
(PID.TID 0000.0001) %MON trcstat_ptracer72_mean       =   2.4565006429399556E-04
(PID.TID 0000.0001) %MON trcstat_ptracer72_sd         =   2.2241445015377921E-03
(PID.TID 0000.0001) %MON trcstat_ptracer72_del2       =   2.7987428197125211E-06
(PID.TID 0000.0001) %MON trcstat_ptracer73_max        =   2.1914001532410604E-01
(PID.TID 0000.0001) %MON trcstat_ptracer73_min        =   2.8713507396740965E-07
(PID.TID 0000.0001) %MON trcstat_ptracer73_mean       =   2.7791072718945804E-04
(PID.TID 0000.0001) %MON trcstat_ptracer73_sd         =   2.4283528431422730E-03
(PID.TID 0000.0001) %MON trcstat_ptracer73_del2       =   3.0234179355613411E-06
(PID.TID 0000.0001) %MON trcstat_ptracer74_max        =   2.1764019090014568E-02
(PID.TID 0000.0001) %MON trcstat_ptracer74_min        =   1.6213608025154764E-08
(PID.TID 0000.0001) %MON trcstat_ptracer74_mean       =   1.7494975951282021E-05
(PID.TID 0000.0001) %MON trcstat_ptracer74_sd         =   1.7902805016363859E-04
(PID.TID 0000.0001) %MON trcstat_ptracer74_del2       =   2.4063114802927323E-07
(PID.TID 0000.0001) %MON trcstat_ptracer75_max        =   2.1880926305379975E-01
(PID.TID 0000.0001) %MON trcstat_ptracer75_min        =   2.8604785046649935E-07
(PID.TID 0000.0001) %MON trcstat_ptracer75_mean       =   2.3566591390869167E-04
(PID.TID 0000.0001) %MON trcstat_ptracer75_sd         =   2.1668865500589236E-03
(PID.TID 0000.0001) %MON trcstat_ptracer75_del2       =   2.7443488397641935E-06
(PID.TID 0000.0001) %MON trcstat_ptracer76_max        =   2.1906855244322412E-01
(PID.TID 0000.0001) %MON trcstat_ptracer76_min        =   3.5859273595437019E-07
(PID.TID 0000.0001) %MON trcstat_ptracer76_mean       =   2.6801695935176306E-04
(PID.TID 0000.0001) %MON trcstat_ptracer76_sd         =   2.3706515083180444E-03
(PID.TID 0000.0001) %MON trcstat_ptracer76_del2       =   2.9578818565283583E-06
(PID.TID 0000.0001) %MON trcstat_ptracer77_max        =   2.1867427015240015E-01
(PID.TID 0000.0001) %MON trcstat_ptracer77_min        =   3.5677398755904862E-07
(PID.TID 0000.0001) %MON trcstat_ptracer77_mean       =   2.2579409539487933E-04
(PID.TID 0000.0001) %MON trcstat_ptracer77_sd         =   2.1094011645918067E-03
(PID.TID 0000.0001) %MON trcstat_ptracer77_del2       =   2.6904550545300619E-06
(PID.TID 0000.0001) %MON trcstat_ptracer78_max        =   2.1900640000178542E-01
(PID.TID 0000.0001) %MON trcstat_ptracer78_min        =   4.7184205684338146E-07
(PID.TID 0000.0001) %MON trcstat_ptracer78_mean       =   2.5829323307011555E-04
(PID.TID 0000.0001) %MON trcstat_ptracer78_sd         =   2.3136167160392042E-03
(PID.TID 0000.0001) %MON trcstat_ptracer78_del2       =   2.8954990730119448E-06
(PID.TID 0000.0001) %MON trcstat_ptracer79_max        =   2.1886680017280152E-01
(PID.TID 0000.0001) %MON trcstat_ptracer79_min        =   5.4821335773822676E-07
(PID.TID 0000.0001) %MON trcstat_ptracer79_mean       =   2.4866696686440384E-04
(PID.TID 0000.0001) %MON trcstat_ptracer79_sd         =   2.2559480510134814E-03
(PID.TID 0000.0001) %MON trcstat_ptracer79_del2       =   2.8327421959939909E-06
(PID.TID 0000.0001) %MON trcstat_ptracer80_max        =   2.1865516231141066E-01
(PID.TID 0000.0001) %MON trcstat_ptracer80_min        =   4.8058510174728725E-07
(PID.TID 0000.0001) %MON trcstat_ptracer80_mean       =   2.3912101762642348E-04
(PID.TID 0000.0001) %MON trcstat_ptracer80_sd         =   2.1978926710090616E-03
(PID.TID 0000.0001) %MON trcstat_ptracer80_del2       =   2.7709945163002582E-06
(PID.TID 0000.0001) %MON trcstat_ptracer81_max        =   2.1834817156594857E-01
(PID.TID 0000.0001) %MON trcstat_ptracer81_min        =   4.1616780101645522E-07
(PID.TID 0000.0001) %MON trcstat_ptracer81_mean       =   2.2962716962426360E-04
(PID.TID 0000.0001) %MON trcstat_ptracer81_sd         =   2.1391649550647120E-03
(PID.TID 0000.0001) %MON trcstat_ptracer81_del2       =   2.7095695327508696E-06
(PID.TID 0000.0001) // =======================================================
(PID.TID 0000.0001) // End MONITOR ptracers field statistics
(PID.TID 0000.0001) // =======================================================
 Compute Stats, Diag. #   1233  PP        vol(   0 ): 1.326E+18  Parms: SM P    MR      
 Compute Stats, Diag. #   1234  Nfix      vol(   0 ): 1.326E+18  Parms: SM P    MR      
 Compute Stats, Diag. #   1235  Denit     vol(   0 ): 1.326E+18  Parms: SM P    MR      
(PID.TID 0000.0001) // =======================================================
(PID.TID 0000.0001) // Begin MONITOR EXF statistics
(PID.TID 0000.0001) // =======================================================
(PID.TID 0000.0001) %MON exf_tsnumber                 =                     2
(PID.TID 0000.0001) %MON exf_time_sec                 =   2.1600000000000000E+04
(PID.TID 0000.0001) %MON exf_ustress_max              =   0.0000000000000000E+00
(PID.TID 0000.0001) %MON exf_ustress_min              =   0.0000000000000000E+00
(PID.TID 0000.0001) %MON exf_ustress_mean             =   0.0000000000000000E+00
(PID.TID 0000.0001) %MON exf_ustress_sd               =   0.0000000000000000E+00
(PID.TID 0000.0001) %MON exf_ustress_del2             =   0.0000000000000000E+00
(PID.TID 0000.0001) %MON exf_vstress_max              =   0.0000000000000000E+00
(PID.TID 0000.0001) %MON exf_vstress_min              =   0.0000000000000000E+00
(PID.TID 0000.0001) %MON exf_vstress_mean             =   0.0000000000000000E+00
(PID.TID 0000.0001) %MON exf_vstress_sd               =   0.0000000000000000E+00
(PID.TID 0000.0001) %MON exf_vstress_del2             =   0.0000000000000000E+00
(PID.TID 0000.0001) %MON exf_hflux_max                =   0.0000000000000000E+00
(PID.TID 0000.0001) %MON exf_hflux_min                =   0.0000000000000000E+00
(PID.TID 0000.0001) %MON exf_hflux_mean               =   0.0000000000000000E+00
(PID.TID 0000.0001) %MON exf_hflux_sd                 =   0.0000000000000000E+00
(PID.TID 0000.0001) %MON exf_hflux_del2               =   0.0000000000000000E+00
(PID.TID 0000.0001) %MON exf_sflux_max                =   0.0000000000000000E+00
(PID.TID 0000.0001) %MON exf_sflux_min                =   0.0000000000000000E+00
(PID.TID 0000.0001) %MON exf_sflux_mean               =   0.0000000000000000E+00
(PID.TID 0000.0001) %MON exf_sflux_sd                 =   0.0000000000000000E+00
(PID.TID 0000.0001) %MON exf_sflux_del2               =   0.0000000000000000E+00
(PID.TID 0000.0001) %MON exf_uwind_max                =   0.0000000000000000E+00
(PID.TID 0000.0001) %MON exf_uwind_min                =   0.0000000000000000E+00
(PID.TID 0000.0001) %MON exf_uwind_mean               =   0.0000000000000000E+00
(PID.TID 0000.0001) %MON exf_uwind_sd                 =   0.0000000000000000E+00
(PID.TID 0000.0001) %MON exf_uwind_del2               =   0.0000000000000000E+00
(PID.TID 0000.0001) %MON exf_vwind_max                =   0.0000000000000000E+00
(PID.TID 0000.0001) %MON exf_vwind_min                =   0.0000000000000000E+00
(PID.TID 0000.0001) %MON exf_vwind_mean               =   0.0000000000000000E+00
(PID.TID 0000.0001) %MON exf_vwind_sd                 =   0.0000000000000000E+00
(PID.TID 0000.0001) %MON exf_vwind_del2               =   0.0000000000000000E+00
(PID.TID 0000.0001) %MON exf_wspeed_max               =   0.0000000000000000E+00
(PID.TID 0000.0001) %MON exf_wspeed_min               =   0.0000000000000000E+00
(PID.TID 0000.0001) %MON exf_wspeed_mean              =   0.0000000000000000E+00
(PID.TID 0000.0001) %MON exf_wspeed_sd                =   0.0000000000000000E+00
(PID.TID 0000.0001) %MON exf_wspeed_del2              =   0.0000000000000000E+00
(PID.TID 0000.0001) %MON exf_evap_max                 =   0.0000000000000000E+00
(PID.TID 0000.0001) %MON exf_evap_min                 =   0.0000000000000000E+00
(PID.TID 0000.0001) %MON exf_evap_mean                =   0.0000000000000000E+00
(PID.TID 0000.0001) %MON exf_evap_sd                  =   0.0000000000000000E+00
(PID.TID 0000.0001) %MON exf_evap_del2                =   0.0000000000000000E+00
(PID.TID 0000.0001) // =======================================================
(PID.TID 0000.0001) // End MONITOR EXF statistics
(PID.TID 0000.0001) // =======================================================
(PID.TID 0000.0001) // =======================================================
(PID.TID 0000.0001) // Begin MONITOR dynamic field statistics
(PID.TID 0000.0001) // =======================================================
(PID.TID 0000.0001) %MON time_tsnumber                =                     3
(PID.TID 0000.0001) %MON time_secondsf                =   3.2400000000000000E+04
(PID.TID 0000.0001) %MON dynstat_eta_max              =   0.0000000000000000E+00
(PID.TID 0000.0001) %MON dynstat_eta_min              =   0.0000000000000000E+00
(PID.TID 0000.0001) %MON dynstat_eta_mean             =   0.0000000000000000E+00
(PID.TID 0000.0001) %MON dynstat_eta_sd               =   0.0000000000000000E+00
(PID.TID 0000.0001) %MON dynstat_eta_del2             =   0.0000000000000000E+00
(PID.TID 0000.0001) %MON dynstat_uvel_max             =   8.2787792384624481E-01
(PID.TID 0000.0001) %MON dynstat_uvel_min             =  -7.7366523444652557E-01
(PID.TID 0000.0001) %MON dynstat_uvel_mean            =   2.3066982591608389E-03
(PID.TID 0000.0001) %MON dynstat_uvel_sd              =   2.2979161536388806E-02
(PID.TID 0000.0001) %MON dynstat_uvel_del2            =   2.6227845153628303E-05
(PID.TID 0000.0001) %MON dynstat_vvel_max             =   1.1516935825347900E+00
(PID.TID 0000.0001) %MON dynstat_vvel_min             =  -1.0230533313006163E+00
(PID.TID 0000.0001) %MON dynstat_vvel_mean            =  -1.5131824096095898E-05
(PID.TID 0000.0001) %MON dynstat_vvel_sd              =   1.1885823701117357E-02
(PID.TID 0000.0001) %MON dynstat_vvel_del2            =   2.4170510971956760E-05
(PID.TID 0000.0001) %MON dynstat_wvel_max             =   6.4016921169240959E-04
(PID.TID 0000.0001) %MON dynstat_wvel_min             =  -6.3662792672403157E-04
(PID.TID 0000.0001) %MON dynstat_wvel_mean            =   2.3019587771288361E-14
(PID.TID 0000.0001) %MON dynstat_wvel_sd              =   1.0870304383848631E-05
(PID.TID 0000.0001) %MON dynstat_wvel_del2            =   1.9959563334565958E-08
(PID.TID 0000.0001) %MON dynstat_theta_max            =   3.1863665103912354E+01
(PID.TID 0000.0001) %MON dynstat_theta_min            =  -2.6629422307014465E+00
(PID.TID 0000.0001) %MON dynstat_theta_mean           =   3.6064508065863925E+00
(PID.TID 0000.0001) %MON dynstat_theta_sd             =   4.4517882410402230E+00
(PID.TID 0000.0001) %MON dynstat_theta_del2           =   3.7718845281229908E-04
(PID.TID 0000.0001) %MON dynstat_salt_max             =   3.9530662536621094E+01
(PID.TID 0000.0001) %MON dynstat_salt_min             =   2.6606716156005859E+01
(PID.TID 0000.0001) %MON dynstat_salt_mean            =   3.4722087530526316E+01
(PID.TID 0000.0001) %MON dynstat_salt_sd              =   3.6487592919979761E-01
(PID.TID 0000.0001) %MON dynstat_salt_del2            =   7.1771759170648059E-05
(PID.TID 0000.0001) %MON dynstat_sst_max              =   3.1863665103912354E+01
(PID.TID 0000.0001) %MON dynstat_sst_min              =  -1.9882244467735291E+00
(PID.TID 0000.0001) %MON dynstat_sst_mean             =   1.9157269012249536E+01
(PID.TID 0000.0001) %MON dynstat_sst_sd               =   9.5402596008918312E+00
(PID.TID 0000.0001) %MON dynstat_sst_del2             =   2.2734774587362667E-03
(PID.TID 0000.0001) %MON dynstat_sss_max              =   3.9530662536621094E+01
(PID.TID 0000.0001) %MON dynstat_sss_min              =   2.6606716156005859E+01
(PID.TID 0000.0001) %MON dynstat_sss_mean             =   3.4860314302816874E+01
(PID.TID 0000.0001) %MON dynstat_sss_sd               =   1.0783502037450308E+00
(PID.TID 0000.0001) %MON dynstat_sss_del2             =   6.1366118957301055E-04
(PID.TID 0000.0001) %MON forcing_qnet_max             =   0.0000000000000000E+00
(PID.TID 0000.0001) %MON forcing_qnet_min             =   0.0000000000000000E+00
(PID.TID 0000.0001) %MON forcing_qnet_mean            =   0.0000000000000000E+00
(PID.TID 0000.0001) %MON forcing_qnet_sd              =   0.0000000000000000E+00
(PID.TID 0000.0001) %MON forcing_qnet_del2            =   0.0000000000000000E+00
(PID.TID 0000.0001) %MON forcing_qsw_max              =   0.0000000000000000E+00
(PID.TID 0000.0001) %MON forcing_qsw_min              =   0.0000000000000000E+00
(PID.TID 0000.0001) %MON forcing_qsw_mean             =   0.0000000000000000E+00
(PID.TID 0000.0001) %MON forcing_qsw_sd               =   0.0000000000000000E+00
(PID.TID 0000.0001) %MON forcing_qsw_del2             =   0.0000000000000000E+00
(PID.TID 0000.0001) %MON forcing_empmr_max            =   0.0000000000000000E+00
(PID.TID 0000.0001) %MON forcing_empmr_min            =   0.0000000000000000E+00
(PID.TID 0000.0001) %MON forcing_empmr_mean           =   0.0000000000000000E+00
(PID.TID 0000.0001) %MON forcing_empmr_sd             =   0.0000000000000000E+00
(PID.TID 0000.0001) %MON forcing_empmr_del2           =   0.0000000000000000E+00
(PID.TID 0000.0001) %MON forcing_fu_max               =   0.0000000000000000E+00
(PID.TID 0000.0001) %MON forcing_fu_min               =   0.0000000000000000E+00
(PID.TID 0000.0001) %MON forcing_fu_mean              =   0.0000000000000000E+00
(PID.TID 0000.0001) %MON forcing_fu_sd                =   0.0000000000000000E+00
(PID.TID 0000.0001) %MON forcing_fu_del2              =   0.0000000000000000E+00
(PID.TID 0000.0001) %MON forcing_fv_max               =   0.0000000000000000E+00
(PID.TID 0000.0001) %MON forcing_fv_min               =   0.0000000000000000E+00
(PID.TID 0000.0001) %MON forcing_fv_mean              =   0.0000000000000000E+00
(PID.TID 0000.0001) %MON forcing_fv_sd                =   0.0000000000000000E+00
(PID.TID 0000.0001) %MON forcing_fv_del2              =   0.0000000000000000E+00
(PID.TID 0000.0001) %MON advcfl_uvel_max              =   1.1894788553648365E-01
(PID.TID 0000.0001) %MON advcfl_vvel_max              =   1.1187779607106567E-01
(PID.TID 0000.0001) %MON advcfl_wvel_max              =   3.0728122161235660E-01
(PID.TID 0000.0001) %MON advcfl_W_hf_max              =   3.4569137431390118E-01
(PID.TID 0000.0001) %MON pe_b_mean                    =   0.0000000000000000E+00
(PID.TID 0000.0001) %MON ke_max                       =   5.5317846691783989E-01
(PID.TID 0000.0001) %MON ke_mean                      =   3.2352767528803149E-04
(PID.TID 0000.0001) %MON ke_vol                       =   1.3258927395735470E+18
(PID.TID 0000.0001) %MON vort_r_min                   =  -1.2087403672347230E-05
(PID.TID 0000.0001) %MON vort_r_max                   =   1.4241313250549931E-05
(PID.TID 0000.0001) %MON vort_a_mean                  =  -2.1443554633607763E-05
(PID.TID 0000.0001) %MON vort_a_sd                    =   7.3250394380986505E-05
(PID.TID 0000.0001) %MON vort_p_mean                  =  -2.3136237690500922E-05
(PID.TID 0000.0001) %MON vort_p_sd                    =   8.5528113970916863E-05
(PID.TID 0000.0001) %MON surfExpan_theta_mean         =  -8.1455219359452153E-08
(PID.TID 0000.0001) %MON surfExpan_salt_mean          =   7.9128119722139319E-09
(PID.TID 0000.0001) // =======================================================
(PID.TID 0000.0001) // End MONITOR dynamic field statistics
(PID.TID 0000.0001) // =======================================================
(PID.TID 0000.0001) // =======================================================
(PID.TID 0000.0001) // Begin MONITOR ptracer field statistics
(PID.TID 0000.0001) // =======================================================
(PID.TID 0000.0001) %MON trcstat_ptracer01_max        =   2.4045009725478949E+03
(PID.TID 0000.0001) %MON trcstat_ptracer01_min        =   1.8500567889243541E+03
(PID.TID 0000.0001) %MON trcstat_ptracer01_mean       =   2.2546506915321088E+03
(PID.TID 0000.0001) %MON trcstat_ptracer01_sd         =   7.8577230524105033E+01
(PID.TID 0000.0001) %MON trcstat_ptracer01_del2       =   6.8805109071680042E-03
(PID.TID 0000.0001) %MON trcstat_ptracer02_max        =   2.1584046111615871E+00
(PID.TID 0000.0001) %MON trcstat_ptracer02_min        =  -1.0466605726204713E-02
(PID.TID 0000.0001) %MON trcstat_ptracer02_mean       =   1.9080739793538889E-03
(PID.TID 0000.0001) %MON trcstat_ptracer02_sd         =   1.8098655700670374E-02
(PID.TID 0000.0001) %MON trcstat_ptracer02_del2       =   2.8899513457318457E-05
(PID.TID 0000.0001) %MON trcstat_ptracer03_max        =   3.0303201683891898E+00
(PID.TID 0000.0001) %MON trcstat_ptracer03_min        =  -6.6861738608224301E-06
(PID.TID 0000.0001) %MON trcstat_ptracer03_mean       =   5.8041657349108978E-03
(PID.TID 0000.0001) %MON trcstat_ptracer03_sd         =   2.4285606957773279E-02
(PID.TID 0000.0001) %MON trcstat_ptracer03_del2       =   2.8934447495770380E-05
(PID.TID 0000.0001) %MON trcstat_ptracer04_max        =   5.0631752161532354E+01
(PID.TID 0000.0001) %MON trcstat_ptracer04_min        =  -4.0238854194861673E-02
(PID.TID 0000.0001) %MON trcstat_ptracer04_mean       =   3.1007717271514075E+01
(PID.TID 0000.0001) %MON trcstat_ptracer04_sd         =   9.0050154590310001E+00
(PID.TID 0000.0001) %MON trcstat_ptracer04_del2       =   6.8676357049904727E-04
(PID.TID 0000.0001) %MON trcstat_ptracer05_max        =   3.7937544282449100E+00
(PID.TID 0000.0001) %MON trcstat_ptracer05_min        =   2.0404875089216765E-02
(PID.TID 0000.0001) %MON trcstat_ptracer05_mean       =   2.1762303888279431E+00
(PID.TID 0000.0001) %MON trcstat_ptracer05_sd         =   6.4447014022125915E-01
(PID.TID 0000.0001) %MON trcstat_ptracer05_del2       =   4.5527432238685910E-05
(PID.TID 0000.0001) %MON trcstat_ptracer06_max        =   2.6054322487165314E+02
(PID.TID 0000.0001) %MON trcstat_ptracer06_min        =   2.8884270461133216E-01
(PID.TID 0000.0001) %MON trcstat_ptracer06_mean       =   9.0810265853344703E+01
(PID.TID 0000.0001) %MON trcstat_ptracer06_sd         =   5.2139469804432167E+01
(PID.TID 0000.0001) %MON trcstat_ptracer06_del2       =   1.4186094435968363E-03
(PID.TID 0000.0001) %MON trcstat_ptracer07_max        =   1.0974146400309390E-03
(PID.TID 0000.0001) %MON trcstat_ptracer07_min        =   1.2158809028684591E-07
(PID.TID 0000.0001) %MON trcstat_ptracer07_mean       =   6.2099009500273233E-04
(PID.TID 0000.0001) %MON trcstat_ptracer07_sd         =   1.7819956041381318E-04
(PID.TID 0000.0001) %MON trcstat_ptracer07_del2       =   6.0798425701043304E-08
(PID.TID 0000.0001) %MON trcstat_ptracer08_max        =   5.1946041268394048E+01
(PID.TID 0000.0001) %MON trcstat_ptracer08_min        =  -5.4044117517476991E-07
(PID.TID 0000.0001) %MON trcstat_ptracer08_mean       =   2.2533359850703649E-01
(PID.TID 0000.0001) %MON trcstat_ptracer08_sd         =   1.3184374081362225E+00
(PID.TID 0000.0001) %MON trcstat_ptracer08_del2       =   1.2483630070228035E-03
(PID.TID 0000.0001) %MON trcstat_ptracer09_max        =   7.2332173432356690E+00
(PID.TID 0000.0001) %MON trcstat_ptracer09_min        =  -1.4168297677908086E-06
(PID.TID 0000.0001) %MON trcstat_ptracer09_mean       =   3.0259383418549429E-02
(PID.TID 0000.0001) %MON trcstat_ptracer09_sd         =   1.7748760794292251E-01
(PID.TID 0000.0001) %MON trcstat_ptracer09_del2       =   1.6858702654444881E-04
(PID.TID 0000.0001) %MON trcstat_ptracer10_max        =   4.3288368234853736E-01
(PID.TID 0000.0001) %MON trcstat_ptracer10_min        =  -8.9465976325792662E-08
(PID.TID 0000.0001) %MON trcstat_ptracer10_mean       =   1.8777799883636455E-03
(PID.TID 0000.0001) %MON trcstat_ptracer10_sd         =   1.0986978405024070E-02
(PID.TID 0000.0001) %MON trcstat_ptracer10_del2       =   1.0403025089453944E-05
(PID.TID 0000.0001) %MON trcstat_ptracer11_max        =   5.0148027471273694E-04
(PID.TID 0000.0001) %MON trcstat_ptracer11_min        =  -4.4960694133371338E-12
(PID.TID 0000.0001) %MON trcstat_ptracer11_mean       =   1.9046424391478446E-06
(PID.TID 0000.0001) %MON trcstat_ptracer11_sd         =   1.1205670021303448E-05
(PID.TID 0000.0001) %MON trcstat_ptracer11_del2       =   1.0710052621289781E-08
(PID.TID 0000.0001) %MON trcstat_ptracer12_max        =   1.3323014467074458E+03
(PID.TID 0000.0001) %MON trcstat_ptracer12_min        =   1.0070982647085196E-04
(PID.TID 0000.0001) %MON trcstat_ptracer12_mean       =   1.6625364183775343E-01
(PID.TID 0000.0001) %MON trcstat_ptracer12_sd         =   2.3046417718377898E+00
(PID.TID 0000.0001) %MON trcstat_ptracer12_del2       =   8.9625221354882874E-04
(PID.TID 0000.0001) %MON trcstat_ptracer13_max        =   1.8814714550334625E+02
(PID.TID 0000.0001) %MON trcstat_ptracer13_min        =   1.3438513102169545E-05
(PID.TID 0000.0001) %MON trcstat_ptracer13_mean       =   2.2507166830221390E-02
(PID.TID 0000.0001) %MON trcstat_ptracer13_sd         =   3.2803122994851264E-01
(PID.TID 0000.0001) %MON trcstat_ptracer13_del2       =   1.2314334823858644E-04
(PID.TID 0000.0001) %MON trcstat_ptracer14_max        =   1.1104311348770459E+01
(PID.TID 0000.0001) %MON trcstat_ptracer14_min        =   8.3924857549067345E-07
(PID.TID 0000.0001) %MON trcstat_ptracer14_mean       =   1.3854511191266294E-03
(PID.TID 0000.0001) %MON trcstat_ptracer14_sd         =   1.9207015309675512E-02
(PID.TID 0000.0001) %MON trcstat_ptracer14_del2       =   7.4687682293976017E-06
(PID.TID 0000.0001) %MON trcstat_ptracer15_max        =   1.2251537113497014E+02
(PID.TID 0000.0001) %MON trcstat_ptracer15_min        =   4.4547188470308180E-07
(PID.TID 0000.0001) %MON trcstat_ptracer15_mean       =   1.3523428339587654E-01
(PID.TID 0000.0001) %MON trcstat_ptracer15_sd         =   3.9841396058396789E-01
(PID.TID 0000.0001) %MON trcstat_ptracer15_del2       =   2.6633878002644564E-04
(PID.TID 0000.0001) %MON trcstat_ptracer16_max        =   1.2414024596679812E-02
(PID.TID 0000.0001) %MON trcstat_ptracer16_min        =   8.4056556821634149E-10
(PID.TID 0000.0001) %MON trcstat_ptracer16_mean       =   1.4279449662218512E-06
(PID.TID 0000.0001) %MON trcstat_ptracer16_sd         =   2.1809147129991517E-05
(PID.TID 0000.0001) %MON trcstat_ptracer16_del2       =   7.9500936818900106E-09
(PID.TID 0000.0001) %MON trcstat_ptracer17_max        =   3.9028395620175689E+02
(PID.TID 0000.0001) %MON trcstat_ptracer17_min        =   3.7797289823419177E-07
(PID.TID 0000.0001) %MON trcstat_ptracer17_mean       =   2.2833147496087075E-01
(PID.TID 0000.0001) %MON trcstat_ptracer17_sd         =   1.0009168521926235E+00
(PID.TID 0000.0001) %MON trcstat_ptracer17_del2       =   1.5348884184694471E-03
(PID.TID 0000.0001) %MON trcstat_ptracer18_max        =   2.4565637669020848E+03
(PID.TID 0000.0001) %MON trcstat_ptracer18_min        =   2.1807102402029172E+03
(PID.TID 0000.0001) %MON trcstat_ptracer18_mean       =   2.3632507182571862E+03
(PID.TID 0000.0001) %MON trcstat_ptracer18_sd         =   4.2539691610171921E+01
(PID.TID 0000.0001) %MON trcstat_ptracer18_del2       =   2.3189145927491280E-03
(PID.TID 0000.0001) %MON trcstat_ptracer19_max        =   4.0029008292333782E+02
(PID.TID 0000.0001) %MON trcstat_ptracer19_min        =   3.1126808375757671E+00
(PID.TID 0000.0001) %MON trcstat_ptracer19_mean       =   1.7468759880952894E+02
(PID.TID 0000.0001) %MON trcstat_ptracer19_sd         =   6.2902247744141221E+01
(PID.TID 0000.0001) %MON trcstat_ptracer19_del2       =   4.7253725323433042E-03
(PID.TID 0000.0001) %MON trcstat_ptracer20_max        =   8.2307723150852707E-01
(PID.TID 0000.0001) %MON trcstat_ptracer20_min        =   2.6040804968846288E-07
(PID.TID 0000.0001) %MON trcstat_ptracer20_mean       =   1.1354156780160798E-03
(PID.TID 0000.0001) %MON trcstat_ptracer20_sd         =   9.2891781968814750E-03
(PID.TID 0000.0001) %MON trcstat_ptracer20_del2       =   1.1854830154560574E-05
(PID.TID 0000.0001) %MON trcstat_ptracer21_max        =   8.3335516160687151E-01
(PID.TID 0000.0001) %MON trcstat_ptracer21_min        =   2.6451498693949661E-07
(PID.TID 0000.0001) %MON trcstat_ptracer21_mean       =   1.1390547141785883E-03
(PID.TID 0000.0001) %MON trcstat_ptracer21_sd         =   9.3162944790118815E-03
(PID.TID 0000.0001) %MON trcstat_ptracer21_del2       =   1.1900229703054249E-05
(PID.TID 0000.0001) %MON trcstat_ptracer22_max        =   8.4275546451030037E-01
(PID.TID 0000.0001) %MON trcstat_ptracer22_min        =   2.7021477829616539E-07
(PID.TID 0000.0001) %MON trcstat_ptracer22_mean       =   1.1422414869635804E-03
(PID.TID 0000.0001) %MON trcstat_ptracer22_sd         =   9.3405854507211030E-03
(PID.TID 0000.0001) %MON trcstat_ptracer22_del2       =   1.1941764454248025E-05
(PID.TID 0000.0001) %MON trcstat_ptracer23_max        =   8.5130714553629294E-01
(PID.TID 0000.0001) %MON trcstat_ptracer23_min        =   2.7814508047695634E-07
(PID.TID 0000.0001) %MON trcstat_ptracer23_mean       =   1.1447470402128311E-03
(PID.TID 0000.0001) %MON trcstat_ptracer23_sd         =   9.3611963754232815E-03
(PID.TID 0000.0001) %MON trcstat_ptracer23_del2       =   1.1980590761082089E-05
(PID.TID 0000.0001) %MON trcstat_ptracer24_max        =   8.4958735650581485E-02
(PID.TID 0000.0001) %MON trcstat_ptracer24_min        =   2.8909545882736371E-08
(PID.TID 0000.0001) %MON trcstat_ptracer24_mean       =   1.1356436330178174E-04
(PID.TID 0000.0001) %MON trcstat_ptracer24_sd         =   9.3143670049660636E-04
(PID.TID 0000.0001) %MON trcstat_ptracer24_del2       =   1.1970659323411544E-06
(PID.TID 0000.0001) %MON trcstat_ptracer25_max        =   9.4597376367515573E-01
(PID.TID 0000.0001) %MON trcstat_ptracer25_min        =   2.8995295953337841E-07
(PID.TID 0000.0001) %MON trcstat_ptracer25_mean       =   1.2194802975157659E-03
(PID.TID 0000.0001) %MON trcstat_ptracer25_sd         =   9.8716420605339823E-03
(PID.TID 0000.0001) %MON trcstat_ptracer25_del2       =   1.2616625441049385E-05
(PID.TID 0000.0001) %MON trcstat_ptracer26_max        =   1.0086997392194021E+00
(PID.TID 0000.0001) %MON trcstat_ptracer26_min        =   3.0582916659967145E-07
(PID.TID 0000.0001) %MON trcstat_ptracer26_mean       =   1.2758925178874582E-03
(PID.TID 0000.0001) %MON trcstat_ptracer26_sd         =   1.0353777748360923E-02
(PID.TID 0000.0001) %MON trcstat_ptracer26_del2       =   1.3446858740066127E-05
(PID.TID 0000.0001) %MON trcstat_ptracer27_max        =   8.3785962174178150E-02
(PID.TID 0000.0001) %MON trcstat_ptracer27_min        =   3.0428257850084051E-08
(PID.TID 0000.0001) %MON trcstat_ptracer27_mean       =   1.1252295339243236E-04
(PID.TID 0000.0001) %MON trcstat_ptracer27_sd         =   9.2482996334374056E-04
(PID.TID 0000.0001) %MON trcstat_ptracer27_del2       =   1.1895443576066622E-06
(PID.TID 0000.0001) %MON trcstat_ptracer28_max        =   9.2509432630245692E-01
(PID.TID 0000.0001) %MON trcstat_ptracer28_min        =   3.0512657777446965E-07
(PID.TID 0000.0001) %MON trcstat_ptracer28_mean       =   1.1959488381555906E-03
(PID.TID 0000.0001) %MON trcstat_ptracer28_sd         =   9.7190840877966547E-03
(PID.TID 0000.0001) %MON trcstat_ptracer28_del2       =   1.2446041824761949E-05
(PID.TID 0000.0001) %MON trcstat_ptracer29_max        =   9.8711783204738590E-01
(PID.TID 0000.0001) %MON trcstat_ptracer29_min        =   3.2722113792584093E-07
(PID.TID 0000.0001) %MON trcstat_ptracer29_mean       =   1.2419781190163835E-03
(PID.TID 0000.0001) %MON trcstat_ptracer29_sd         =   1.0118134691454731E-02
(PID.TID 0000.0001) %MON trcstat_ptracer29_del2       =   1.3141455598237542E-05
(PID.TID 0000.0001) %MON trcstat_ptracer30_max        =   8.3035801921666888E-02
(PID.TID 0000.0001) %MON trcstat_ptracer30_min        =   3.2565567514145332E-08
(PID.TID 0000.0001) %MON trcstat_ptracer30_mean       =   1.1165743569468152E-04
(PID.TID 0000.0001) %MON trcstat_ptracer30_sd         =   9.1983870701361115E-04
(PID.TID 0000.0001) %MON trcstat_ptracer30_del2       =   1.1855156148326798E-06
(PID.TID 0000.0001) %MON trcstat_ptracer31_max        =   9.0704088621422729E-01
(PID.TID 0000.0001) %MON trcstat_ptracer31_min        =   3.2648676034616400E-07
(PID.TID 0000.0001) %MON trcstat_ptracer31_mean       =   1.1756111526915779E-03
(PID.TID 0000.0001) %MON trcstat_ptracer31_sd         =   9.5948656449664597E-03
(PID.TID 0000.0001) %MON trcstat_ptracer31_del2       =   1.2320461581864308E-05
(PID.TID 0000.0001) %MON trcstat_ptracer32_max        =   9.6236261128978962E-01
(PID.TID 0000.0001) %MON trcstat_ptracer32_min        =   3.5714396600408002E-07
(PID.TID 0000.0001) %MON trcstat_ptracer32_mean       =   1.2126899986041701E-03
(PID.TID 0000.0001) %MON trcstat_ptracer32_sd         =   9.9167220551880150E-03
(PID.TID 0000.0001) %MON trcstat_ptracer32_del2       =   1.2868569907165118E-05
(PID.TID 0000.0001) %MON trcstat_ptracer33_max        =   8.2309951905872383E-02
(PID.TID 0000.0001) %MON trcstat_ptracer33_min        =   3.5556023675200596E-08
(PID.TID 0000.0001) %MON trcstat_ptracer33_mean       =   1.1092199644705474E-04
(PID.TID 0000.0001) %MON trcstat_ptracer33_sd         =   9.1550029728134697E-04
(PID.TID 0000.0001) %MON trcstat_ptracer33_del2       =   1.1817113496978383E-06
(PID.TID 0000.0001) %MON trcstat_ptracer34_max        =   8.8853065273830245E-01
(PID.TID 0000.0001) %MON trcstat_ptracer34_min        =   3.5638215055714178E-07
(PID.TID 0000.0001) %MON trcstat_ptracer34_mean       =   1.1580153176454031E-03
(PID.TID 0000.0001) %MON trcstat_ptracer34_sd         =   9.4874397487090378E-03
(PID.TID 0000.0001) %MON trcstat_ptracer34_del2       =   1.2206459673637788E-05
(PID.TID 0000.0001) %MON trcstat_ptracer35_max        =   9.3494699275560078E-01
(PID.TID 0000.0001) %MON trcstat_ptracer35_min        =   3.9902285143425918E-07
(PID.TID 0000.0001) %MON trcstat_ptracer35_mean       =   1.1876421874657313E-03
(PID.TID 0000.0001) %MON trcstat_ptracer35_sd         =   9.7446621828845385E-03
(PID.TID 0000.0001) %MON trcstat_ptracer35_del2       =   1.2627486926362044E-05
(PID.TID 0000.0001) %MON trcstat_ptracer36_max        =   8.1597132953392659E-02
(PID.TID 0000.0001) %MON trcstat_ptracer36_min        =   3.9741902503883795E-08
(PID.TID 0000.0001) %MON trcstat_ptracer36_mean       =   1.1029960863592415E-04
(PID.TID 0000.0001) %MON trcstat_ptracer36_sd         =   9.1169873344680043E-04
(PID.TID 0000.0001) %MON trcstat_ptracer36_del2       =   1.1780390633430362E-06
(PID.TID 0000.0001) %MON trcstat_ptracer37_max        =   8.6990370045766208E-01
(PID.TID 0000.0001) %MON trcstat_ptracer37_min        =   3.9823864849415221E-07
(PID.TID 0000.0001) %MON trcstat_ptracer37_mean       =   1.1429457726381531E-03
(PID.TID 0000.0001) %MON trcstat_ptracer37_sd         =   9.3940834295890164E-03
(PID.TID 0000.0001) %MON trcstat_ptracer37_del2       =   1.2102275213971963E-05
(PID.TID 0000.0001) %MON trcstat_ptracer38_max        =   9.0582696119018069E-01
(PID.TID 0000.0001) %MON trcstat_ptracer38_min        =   4.5769506260026171E-07
(PID.TID 0000.0001) %MON trcstat_ptracer38_mean       =   1.1664017774966390E-03
(PID.TID 0000.0001) %MON trcstat_ptracer38_sd         =   9.5975962659398239E-03
(PID.TID 0000.0001) %MON trcstat_ptracer38_del2       =   1.2416999714314213E-05
(PID.TID 0000.0001) %MON trcstat_ptracer39_max        =   8.5152230086615144E-01
(PID.TID 0000.0001) %MON trcstat_ptracer39_min        =   4.5689507038848629E-07
(PID.TID 0000.0001) %MON trcstat_ptracer39_mean       =   1.1301313106071216E-03
(PID.TID 0000.0001) %MON trcstat_ptracer39_sd         =   9.3125927970443452E-03
(PID.TID 0000.0001) %MON trcstat_ptracer39_del2       =   1.2007369031661786E-05
(PID.TID 0000.0001) %MON trcstat_ptracer40_max        =   8.7760522399442409E-01
(PID.TID 0000.0001) %MON trcstat_ptracer40_min        =   5.4009411139479290E-07
(PID.TID 0000.0001) %MON trcstat_ptracer40_mean       =   1.1485927676586852E-03
(PID.TID 0000.0001) %MON trcstat_ptracer40_sd         =   9.4735962780551960E-03
(PID.TID 0000.0001) %MON trcstat_ptracer40_del2       =   1.2243066183393590E-05
(PID.TID 0000.0001) %MON trcstat_ptracer41_max        =   8.4848913550722316E-01
(PID.TID 0000.0001) %MON trcstat_ptracer41_min        =   6.5615049943682375E-07
(PID.TID 0000.0001) %MON trcstat_ptracer41_mean       =   1.1335786405717242E-03
(PID.TID 0000.0001) %MON trcstat_ptracer41_sd         =   9.3629423924283476E-03
(PID.TID 0000.0001) %MON trcstat_ptracer41_del2       =   1.2077939571190532E-05
(PID.TID 0000.0001) %MON trcstat_ptracer42_max        =   8.2940007294387730E-01
(PID.TID 0000.0001) %MON trcstat_ptracer42_min        =   8.2088203484627538E-07
(PID.TID 0000.0001) %MON trcstat_ptracer42_mean       =   1.1210700720819375E-03
(PID.TID 0000.0001) %MON trcstat_ptracer42_sd         =   9.2657851613465875E-03
(PID.TID 0000.0001) %MON trcstat_ptracer42_del2       =   1.1930312476421912E-05
(PID.TID 0000.0001) %MON trcstat_ptracer43_max        =   8.2950334380403967E-01
(PID.TID 0000.0001) %MON trcstat_ptracer43_min        =   1.0580405419295741E-06
(PID.TID 0000.0001) %MON trcstat_ptracer43_mean       =   1.1107024053008967E-03
(PID.TID 0000.0001) %MON trcstat_ptracer43_sd         =   9.1790831649630131E-03
(PID.TID 0000.0001) %MON trcstat_ptracer43_del2       =   1.1795355909284354E-05
(PID.TID 0000.0001) %MON trcstat_ptracer44_max        =   8.1904162312598938E-01
(PID.TID 0000.0001) %MON trcstat_ptracer44_min        =   2.6010351923064296E-07
(PID.TID 0000.0001) %MON trcstat_ptracer44_mean       =   1.1006980176973332E-03
(PID.TID 0000.0001) %MON trcstat_ptracer44_sd         =   9.1521732587174394E-03
(PID.TID 0000.0001) %MON trcstat_ptracer44_del2       =   1.1937222397986887E-05
(PID.TID 0000.0001) %MON trcstat_ptracer45_max        =   8.1627125170103021E-01
(PID.TID 0000.0001) %MON trcstat_ptracer45_min        =   2.6007947629149960E-07
(PID.TID 0000.0001) %MON trcstat_ptracer45_mean       =   1.1006165766122471E-03
(PID.TID 0000.0001) %MON trcstat_ptracer45_sd         =   9.1493382313032941E-03
(PID.TID 0000.0001) %MON trcstat_ptracer45_del2       =   1.1924391796378786E-05
(PID.TID 0000.0001) %MON trcstat_ptracer46_max        =   8.1396785505104929E-01
(PID.TID 0000.0001) %MON trcstat_ptracer46_min        =   2.6005957401236801E-07
(PID.TID 0000.0001) %MON trcstat_ptracer46_mean       =   1.1005489665287013E-03
(PID.TID 0000.0001) %MON trcstat_ptracer46_sd         =   9.1469860122320602E-03
(PID.TID 0000.0001) %MON trcstat_ptracer46_del2       =   1.1913743145194913E-05
(PID.TID 0000.0001) %MON trcstat_ptracer47_max        =   8.1205189159882674E-01
(PID.TID 0000.0001) %MON trcstat_ptracer47_min        =   2.6004309927713643E-07
(PID.TID 0000.0001) %MON trcstat_ptracer47_mean       =   1.1004928398481784E-03
(PID.TID 0000.0001) %MON trcstat_ptracer47_sd         =   9.1450344395314666E-03
(PID.TID 0000.0001) %MON trcstat_ptracer47_del2       =   1.1904905617461820E-05
(PID.TID 0000.0001) %MON trcstat_ptracer48_max        =   8.1190797295438188E-01
(PID.TID 0000.0001) %MON trcstat_ptracer48_min        =   2.6004168447163097E-07
(PID.TID 0000.0001) %MON trcstat_ptracer48_mean       =   1.1004961659880487E-03
(PID.TID 0000.0001) %MON trcstat_ptracer48_sd         =   9.1450597932455253E-03
(PID.TID 0000.0001) %MON trcstat_ptracer48_del2       =   1.1905139559886741E-05
(PID.TID 0000.0001) %MON trcstat_ptracer49_max        =   8.2080807109713172E-01
(PID.TID 0000.0001) %MON trcstat_ptracer49_min        =   2.6015818749595966E-07
(PID.TID 0000.0001) %MON trcstat_ptracer49_mean       =   1.1009156917185018E-03
(PID.TID 0000.0001) %MON trcstat_ptracer49_sd         =   9.1581574603241591E-03
(PID.TID 0000.0001) %MON trcstat_ptracer49_del2       =   1.1958956833351173E-05
(PID.TID 0000.0001) %MON trcstat_ptracer50_max        =   8.1757304029944478E-01
(PID.TID 0000.0001) %MON trcstat_ptracer50_min        =   2.6012473324917512E-07
(PID.TID 0000.0001) %MON trcstat_ptracer50_mean       =   1.1007910557832917E-03
(PID.TID 0000.0001) %MON trcstat_ptracer50_sd         =   9.1541322905944311E-03
(PID.TID 0000.0001) %MON trcstat_ptracer50_del2       =   1.1941496296161443E-05
(PID.TID 0000.0001) %MON trcstat_ptracer51_max        =   8.1492227009899521E-01
(PID.TID 0000.0001) %MON trcstat_ptracer51_min        =   2.6009703993877457E-07
(PID.TID 0000.0001) %MON trcstat_ptracer51_mean       =   1.1006890217158797E-03
(PID.TID 0000.0001) %MON trcstat_ptracer51_sd         =   9.1508301026362298E-03
(PID.TID 0000.0001) %MON trcstat_ptracer51_del2       =   1.1927213851566510E-05
(PID.TID 0000.0001) %MON trcstat_ptracer52_max        =   8.1275071822708567E-01
(PID.TID 0000.0001) %MON trcstat_ptracer52_min        =   2.6007411549804761E-07
(PID.TID 0000.0001) %MON trcstat_ptracer52_mean       =   1.1006054383636259E-03
(PID.TID 0000.0001) %MON trcstat_ptracer52_sd         =   9.1481200811435494E-03
(PID.TID 0000.0001) %MON trcstat_ptracer52_del2       =   1.1915525543858813E-05
(PID.TID 0000.0001) %MON trcstat_ptracer53_max        =   8.1052136455714108E-01
(PID.TID 0000.0001) %MON trcstat_ptracer53_min        =   2.6004818644302733E-07
(PID.TID 0000.0001) %MON trcstat_ptracer53_mean       =   1.1005129934408145E-03
(PID.TID 0000.0001) %MON trcstat_ptracer53_sd         =   9.1451642227224246E-03
(PID.TID 0000.0001) %MON trcstat_ptracer53_del2       =   1.1903071613705332E-05
(PID.TID 0000.0001) %MON trcstat_ptracer54_max        =   8.0520215135191731E-01
(PID.TID 0000.0001) %MON trcstat_ptracer54_min        =   2.5998500118364147E-07
(PID.TID 0000.0001) %MON trcstat_ptracer54_mean       =   1.1002935755870329E-03
(PID.TID 0000.0001) %MON trcstat_ptracer54_sd         =   9.1381098424451190E-03
(PID.TID 0000.0001) %MON trcstat_ptracer54_del2       =   1.1873481108125132E-05
(PID.TID 0000.0001) %MON trcstat_ptracer55_max        =   8.0474873399059055E-01
(PID.TID 0000.0001) %MON trcstat_ptracer55_min        =   2.5998136968687026E-07
(PID.TID 0000.0001) %MON trcstat_ptracer55_mean       =   1.1002804310552721E-03
(PID.TID 0000.0001) %MON trcstat_ptracer55_sd         =   9.1376553833299526E-03
(PID.TID 0000.0001) %MON trcstat_ptracer55_del2       =   1.1871399232141707E-05
(PID.TID 0000.0001) %MON trcstat_ptracer56_max        =   8.0437757403536791E-01
(PID.TID 0000.0001) %MON trcstat_ptracer56_min        =   2.5997836352887045E-07
(PID.TID 0000.0001) %MON trcstat_ptracer56_mean       =   1.1002696697258224E-03
(PID.TID 0000.0001) %MON trcstat_ptracer56_sd         =   9.1372828218552523E-03
(PID.TID 0000.0001) %MON trcstat_ptracer56_del2       =   1.1869698931881683E-05
(PID.TID 0000.0001) %MON trcstat_ptracer57_max        =   8.0407401121141608E-01
(PID.TID 0000.0001) %MON trcstat_ptracer57_min        =   2.5997587502682076E-07
(PID.TID 0000.0001) %MON trcstat_ptracer57_mean       =   1.1002608498211627E-03
(PID.TID 0000.0001) %MON trcstat_ptracer57_sd         =   9.1369771343274651E-03
(PID.TID 0000.0001) %MON trcstat_ptracer57_del2       =   1.1868307650734585E-05
(PID.TID 0000.0001) %MON trcstat_ptracer58_max        =   2.1385753965000573E-01
(PID.TID 0000.0001) %MON trcstat_ptracer58_min        =   1.0188582137547503E-07
(PID.TID 0000.0001) %MON trcstat_ptracer58_mean       =   2.0719735699405099E-04
(PID.TID 0000.0001) %MON trcstat_ptracer58_sd         =   1.9556074028882781E-03
(PID.TID 0000.0001) %MON trcstat_ptracer58_del2       =   2.7204778235502904E-06
(PID.TID 0000.0001) %MON trcstat_ptracer59_max        =   2.1432913830951891E-01
(PID.TID 0000.0001) %MON trcstat_ptracer59_min        =   1.0460334017256273E-07
(PID.TID 0000.0001) %MON trcstat_ptracer59_mean       =   2.1171353482988818E-04
(PID.TID 0000.0001) %MON trcstat_ptracer59_sd         =   1.9837933512214159E-03
(PID.TID 0000.0001) %MON trcstat_ptracer59_del2       =   2.7483210384239297E-06
(PID.TID 0000.0001) %MON trcstat_ptracer60_max        =   2.1469602603013835E-01
(PID.TID 0000.0001) %MON trcstat_ptracer60_min        =   1.0831383763215556E-07
(PID.TID 0000.0001) %MON trcstat_ptracer60_mean       =   2.1608734617627751E-04
(PID.TID 0000.0001) %MON trcstat_ptracer60_sd         =   2.0114442257609996E-03
(PID.TID 0000.0001) %MON trcstat_ptracer60_del2       =   2.7758162889934659E-06
(PID.TID 0000.0001) %MON trcstat_ptracer61_max        =   2.1502695890953691E-01
(PID.TID 0000.0001) %MON trcstat_ptracer61_min        =   1.1423816367935238E-07
(PID.TID 0000.0001) %MON trcstat_ptracer61_mean       =   2.2024895960275553E-04
(PID.TID 0000.0001) %MON trcstat_ptracer61_sd         =   2.0383846229361270E-03
(PID.TID 0000.0001) %MON trcstat_ptracer61_del2       =   2.8031532907348708E-06
(PID.TID 0000.0001) %MON trcstat_ptracer62_max        =   2.1511378195675893E-02
(PID.TID 0000.0001) %MON trcstat_ptracer62_min        =   1.2385236217598994E-08
(PID.TID 0000.0001) %MON trcstat_ptracer62_mean       =   2.1471840957517332E-05
(PID.TID 0000.0001) %MON trcstat_ptracer62_sd         =   2.0112812195856948E-04
(PID.TID 0000.0001) %MON trcstat_ptracer62_del2       =   2.7841859236520345E-07
(PID.TID 0000.0001) %MON trcstat_ptracer63_max        =   2.1566366323340866E-01
(PID.TID 0000.0001) %MON trcstat_ptracer63_min        =   7.6201170342985468E-08
(PID.TID 0000.0001) %MON trcstat_ptracer63_mean       =   2.8373051925934233E-04
(PID.TID 0000.0001) %MON trcstat_ptracer63_sd         =   2.4187938640026184E-03
(PID.TID 0000.0001) %MON trcstat_ptracer63_del2       =   3.1899386353359526E-06
(PID.TID 0000.0001) %MON trcstat_ptracer64_max        =   2.4561633011256365E-01
(PID.TID 0000.0001) %MON trcstat_ptracer64_min        =   8.5214385433010434E-08
(PID.TID 0000.0001) %MON trcstat_ptracer64_mean       =   3.2163343044513021E-04
(PID.TID 0000.0001) %MON trcstat_ptracer64_sd         =   2.6723948045925851E-03
(PID.TID 0000.0001) %MON trcstat_ptracer64_del2       =   3.5331305297922864E-06
(PID.TID 0000.0001) %MON trcstat_ptracer65_max        =   2.1482651884354755E-02
(PID.TID 0000.0001) %MON trcstat_ptracer65_min        =   1.3700408386329808E-08
(PID.TID 0000.0001) %MON trcstat_ptracer65_mean       =   2.0429702520872757E-05
(PID.TID 0000.0001) %MON trcstat_ptracer65_sd         =   1.9505798158362699E-04
(PID.TID 0000.0001) %MON trcstat_ptracer65_del2       =   2.7293017306205643E-07
(PID.TID 0000.0001) %MON trcstat_ptracer66_max        =   2.1548171759353119E-01
(PID.TID 0000.0001) %MON trcstat_ptracer66_min        =   7.8753120701130823E-08
(PID.TID 0000.0001) %MON trcstat_ptracer66_mean       =   2.7123881767390952E-04
(PID.TID 0000.0001) %MON trcstat_ptracer66_sd         =   2.3489381144156003E-03
(PID.TID 0000.0001) %MON trcstat_ptracer66_del2       =   3.1190412646495865E-06
(PID.TID 0000.0001) %MON trcstat_ptracer67_max        =   2.3178069119097197E-01
(PID.TID 0000.0001) %MON trcstat_ptracer67_min        =   9.0129960903503377E-08
(PID.TID 0000.0001) %MON trcstat_ptracer67_mean       =   3.0743458762348002E-04
(PID.TID 0000.0001) %MON trcstat_ptracer67_sd         =   2.5889752961923283E-03
(PID.TID 0000.0001) %MON trcstat_ptracer67_del2       =   3.4329453332102118E-06
(PID.TID 0000.0001) %MON trcstat_ptracer68_max        =   2.1479281169521827E-02
(PID.TID 0000.0001) %MON trcstat_ptracer68_min        =   1.5962083360021843E-08
(PID.TID 0000.0001) %MON trcstat_ptracer68_mean       =   1.9419115882829030E-05
(PID.TID 0000.0001) %MON trcstat_ptracer68_sd         =   1.8919505924062940E-04
(PID.TID 0000.0001) %MON trcstat_ptracer68_del2       =   2.6796172110544858E-07
(PID.TID 0000.0001) %MON trcstat_ptracer69_max        =   2.1557526124922999E-01
(PID.TID 0000.0001) %MON trcstat_ptracer69_min        =   8.2617502169547090E-08
(PID.TID 0000.0001) %MON trcstat_ptracer69_mean       =   2.5930555501667529E-04
(PID.TID 0000.0001) %MON trcstat_ptracer69_sd         =   2.2837301770751162E-03
(PID.TID 0000.0001) %MON trcstat_ptracer69_del2       =   3.0565699420932703E-06
(PID.TID 0000.0001) %MON trcstat_ptracer70_max        =   2.1655084859804330E-01
(PID.TID 0000.0001) %MON trcstat_ptracer70_min        =   9.7108073206180179E-08
(PID.TID 0000.0001) %MON trcstat_ptracer70_mean       =   2.9417802809414623E-04
(PID.TID 0000.0001) %MON trcstat_ptracer70_sd         =   2.5119919956157854E-03
(PID.TID 0000.0001) %MON trcstat_ptracer70_del2       =   3.3395816861902898E-06
(PID.TID 0000.0001) %MON trcstat_ptracer71_max        =   2.1465294650762766E-02
(PID.TID 0000.0001) %MON trcstat_ptracer71_min        =   1.8701741344836153E-08
(PID.TID 0000.0001) %MON trcstat_ptracer71_mean       =   1.8433875946275015E-05
(PID.TID 0000.0001) %MON trcstat_ptracer71_sd         =   1.8336816931352861E-04
(PID.TID 0000.0001) %MON trcstat_ptracer71_del2       =   2.6298424994920338E-07
(PID.TID 0000.0001) %MON trcstat_ptracer72_max        =   2.1558605417069274E-01
(PID.TID 0000.0001) %MON trcstat_ptracer72_min        =   1.2739514156257061E-07
(PID.TID 0000.0001) %MON trcstat_ptracer72_mean       =   2.4781655483157710E-04
(PID.TID 0000.0001) %MON trcstat_ptracer72_sd         =   2.2203718579776447E-03
(PID.TID 0000.0001) %MON trcstat_ptracer72_del2       =   2.9955100511747400E-06
(PID.TID 0000.0001) %MON trcstat_ptracer73_max        =   2.1579339689781840E-01
(PID.TID 0000.0001) %MON trcstat_ptracer73_min        =   1.0694271537104456E-07
(PID.TID 0000.0001) %MON trcstat_ptracer73_mean       =   2.8172056144028983E-04
(PID.TID 0000.0001) %MON trcstat_ptracer73_sd         =   2.4398343281694162E-03
(PID.TID 0000.0001) %MON trcstat_ptracer73_del2       =   3.2523673704147077E-06
(PID.TID 0000.0001) %MON trcstat_ptracer74_max        =   2.1439449328660376E-02
(PID.TID 0000.0001) %MON trcstat_ptracer74_min        =   1.5780190276073280E-08
(PID.TID 0000.0001) %MON trcstat_ptracer74_mean       =   1.7473318583426065E-05
(PID.TID 0000.0001) %MON trcstat_ptracer74_sd         =   1.7757685310389250E-04
(PID.TID 0000.0001) %MON trcstat_ptracer74_del2       =   2.5799053226033734E-07
(PID.TID 0000.0001) %MON trcstat_ptracer75_max        =   2.1550578539204182E-01
(PID.TID 0000.0001) %MON trcstat_ptracer75_min        =   2.4258133149725959E-07
(PID.TID 0000.0001) %MON trcstat_ptracer75_mean       =   2.3672076291255111E-04
(PID.TID 0000.0001) %MON trcstat_ptracer75_sd         =   2.1582566069399847E-03
(PID.TID 0000.0001) %MON trcstat_ptracer75_del2       =   2.9355059879515042E-06
(PID.TID 0000.0001) %MON trcstat_ptracer76_max        =   2.1566902605949972E-01
(PID.TID 0000.0001) %MON trcstat_ptracer76_min        =   1.2072467198127289E-07
(PID.TID 0000.0001) %MON trcstat_ptracer76_mean       =   2.6992703944557451E-04
(PID.TID 0000.0001) %MON trcstat_ptracer76_sd         =   2.3712380777477417E-03
(PID.TID 0000.0001) %MON trcstat_ptracer76_del2       =   3.1708528705373331E-06
(PID.TID 0000.0001) %MON trcstat_ptracer77_max        =   2.1532639077714599E-01
(PID.TID 0000.0001) %MON trcstat_ptracer77_min        =   2.8708154558152734E-07
(PID.TID 0000.0001) %MON trcstat_ptracer77_mean       =   2.2596014830718967E-04
(PID.TID 0000.0001) %MON trcstat_ptracer77_sd         =   2.0969172003771821E-03
(PID.TID 0000.0001) %MON trcstat_ptracer77_del2       =   2.8766416395701968E-06
(PID.TID 0000.0001) %MON trcstat_ptracer78_max        =   2.1554442504241458E-01
(PID.TID 0000.0001) %MON trcstat_ptracer78_min        =   1.3998909282378352E-07
(PID.TID 0000.0001) %MON trcstat_ptracer78_mean       =   2.5869035252105700E-04
(PID.TID 0000.0001) %MON trcstat_ptracer78_sd         =   2.3056746697981516E-03
(PID.TID 0000.0001) %MON trcstat_ptracer78_del2       =   3.0959177978837293E-06
(PID.TID 0000.0001) %MON trcstat_ptracer79_max        =   2.1511523886502865E-01
(PID.TID 0000.0001) %MON trcstat_ptracer79_min        =   1.6685871664068204E-07
(PID.TID 0000.0001) %MON trcstat_ptracer79_mean       =   2.4785208218001606E-04
(PID.TID 0000.0001) %MON trcstat_ptracer79_sd         =   2.2408388031070732E-03
(PID.TID 0000.0001) %MON trcstat_ptracer79_del2       =   3.0217361729864166E-06
(PID.TID 0000.0001) %MON trcstat_ptracer80_max        =   2.1472135543496107E-01
(PID.TID 0000.0001) %MON trcstat_ptracer80_min        =   2.3548776878032667E-07
(PID.TID 0000.0001) %MON trcstat_ptracer80_mean       =   2.3734460256267435E-04
(PID.TID 0000.0001) %MON trcstat_ptracer80_sd         =   2.1768372008178008E-03
(PID.TID 0000.0001) %MON trcstat_ptracer80_del2       =   2.9500043976390596E-06
(PID.TID 0000.0001) %MON trcstat_ptracer81_max        =   2.1442055651311231E-01
(PID.TID 0000.0001) %MON trcstat_ptracer81_min        =   3.9112186893531890E-07
(PID.TID 0000.0001) %MON trcstat_ptracer81_mean       =   2.2709109811055639E-04
(PID.TID 0000.0001) %MON trcstat_ptracer81_sd         =   2.1130564097690228E-03
(PID.TID 0000.0001) %MON trcstat_ptracer81_del2       =   2.8795360328759472E-06
(PID.TID 0000.0001) // =======================================================
(PID.TID 0000.0001) // End MONITOR ptracers field statistics
(PID.TID 0000.0001) // =======================================================
 Compute Stats, Diag. #   1233  PP        vol(   0 ): 1.326E+18  Parms: SM P    MR      
 Compute Stats, Diag. #   1234  Nfix      vol(   0 ): 1.326E+18  Parms: SM P    MR      
 Compute Stats, Diag. #   1235  Denit     vol(   0 ): 1.326E+18  Parms: SM P    MR      
(PID.TID 0000.0001) // =======================================================
(PID.TID 0000.0001) // Begin MONITOR EXF statistics
(PID.TID 0000.0001) // =======================================================
(PID.TID 0000.0001) %MON exf_tsnumber                 =                     3
(PID.TID 0000.0001) %MON exf_time_sec                 =   3.2400000000000000E+04
(PID.TID 0000.0001) %MON exf_ustress_max              =   0.0000000000000000E+00
(PID.TID 0000.0001) %MON exf_ustress_min              =   0.0000000000000000E+00
(PID.TID 0000.0001) %MON exf_ustress_mean             =   0.0000000000000000E+00
(PID.TID 0000.0001) %MON exf_ustress_sd               =   0.0000000000000000E+00
(PID.TID 0000.0001) %MON exf_ustress_del2             =   0.0000000000000000E+00
(PID.TID 0000.0001) %MON exf_vstress_max              =   0.0000000000000000E+00
(PID.TID 0000.0001) %MON exf_vstress_min              =   0.0000000000000000E+00
(PID.TID 0000.0001) %MON exf_vstress_mean             =   0.0000000000000000E+00
(PID.TID 0000.0001) %MON exf_vstress_sd               =   0.0000000000000000E+00
(PID.TID 0000.0001) %MON exf_vstress_del2             =   0.0000000000000000E+00
(PID.TID 0000.0001) %MON exf_hflux_max                =   0.0000000000000000E+00
(PID.TID 0000.0001) %MON exf_hflux_min                =   0.0000000000000000E+00
(PID.TID 0000.0001) %MON exf_hflux_mean               =   0.0000000000000000E+00
(PID.TID 0000.0001) %MON exf_hflux_sd                 =   0.0000000000000000E+00
(PID.TID 0000.0001) %MON exf_hflux_del2               =   0.0000000000000000E+00
(PID.TID 0000.0001) %MON exf_sflux_max                =   0.0000000000000000E+00
(PID.TID 0000.0001) %MON exf_sflux_min                =   0.0000000000000000E+00
(PID.TID 0000.0001) %MON exf_sflux_mean               =   0.0000000000000000E+00
(PID.TID 0000.0001) %MON exf_sflux_sd                 =   0.0000000000000000E+00
(PID.TID 0000.0001) %MON exf_sflux_del2               =   0.0000000000000000E+00
(PID.TID 0000.0001) %MON exf_uwind_max                =   0.0000000000000000E+00
(PID.TID 0000.0001) %MON exf_uwind_min                =   0.0000000000000000E+00
(PID.TID 0000.0001) %MON exf_uwind_mean               =   0.0000000000000000E+00
(PID.TID 0000.0001) %MON exf_uwind_sd                 =   0.0000000000000000E+00
(PID.TID 0000.0001) %MON exf_uwind_del2               =   0.0000000000000000E+00
(PID.TID 0000.0001) %MON exf_vwind_max                =   0.0000000000000000E+00
(PID.TID 0000.0001) %MON exf_vwind_min                =   0.0000000000000000E+00
(PID.TID 0000.0001) %MON exf_vwind_mean               =   0.0000000000000000E+00
(PID.TID 0000.0001) %MON exf_vwind_sd                 =   0.0000000000000000E+00
(PID.TID 0000.0001) %MON exf_vwind_del2               =   0.0000000000000000E+00
(PID.TID 0000.0001) %MON exf_wspeed_max               =   0.0000000000000000E+00
(PID.TID 0000.0001) %MON exf_wspeed_min               =   0.0000000000000000E+00
(PID.TID 0000.0001) %MON exf_wspeed_mean              =   0.0000000000000000E+00
(PID.TID 0000.0001) %MON exf_wspeed_sd                =   0.0000000000000000E+00
(PID.TID 0000.0001) %MON exf_wspeed_del2              =   0.0000000000000000E+00
(PID.TID 0000.0001) %MON exf_evap_max                 =   0.0000000000000000E+00
(PID.TID 0000.0001) %MON exf_evap_min                 =   0.0000000000000000E+00
(PID.TID 0000.0001) %MON exf_evap_mean                =   0.0000000000000000E+00
(PID.TID 0000.0001) %MON exf_evap_sd                  =   0.0000000000000000E+00
(PID.TID 0000.0001) %MON exf_evap_del2                =   0.0000000000000000E+00
(PID.TID 0000.0001) // =======================================================
(PID.TID 0000.0001) // End MONITOR EXF statistics
(PID.TID 0000.0001) // =======================================================
(PID.TID 0000.0001) // =======================================================
(PID.TID 0000.0001) // Begin MONITOR dynamic field statistics
(PID.TID 0000.0001) // =======================================================
(PID.TID 0000.0001) %MON time_tsnumber                =                     4
(PID.TID 0000.0001) %MON time_secondsf                =   4.3200000000000000E+04
(PID.TID 0000.0001) %MON dynstat_eta_max              =   0.0000000000000000E+00
(PID.TID 0000.0001) %MON dynstat_eta_min              =   0.0000000000000000E+00
(PID.TID 0000.0001) %MON dynstat_eta_mean             =   0.0000000000000000E+00
(PID.TID 0000.0001) %MON dynstat_eta_sd               =   0.0000000000000000E+00
(PID.TID 0000.0001) %MON dynstat_eta_del2             =   0.0000000000000000E+00
(PID.TID 0000.0001) %MON dynstat_uvel_max             =   8.7074633687734604E-01
(PID.TID 0000.0001) %MON dynstat_uvel_min             =  -7.3878312110900879E-01
(PID.TID 0000.0001) %MON dynstat_uvel_mean            =   2.2814065625190371E-03
(PID.TID 0000.0001) %MON dynstat_uvel_sd              =   2.3299240079840623E-02
(PID.TID 0000.0001) %MON dynstat_uvel_del2            =   2.7547322281352395E-05
(PID.TID 0000.0001) %MON dynstat_vvel_max             =   1.0058413743972778E+00
(PID.TID 0000.0001) %MON dynstat_vvel_min             =  -1.1740059470757842E+00
(PID.TID 0000.0001) %MON dynstat_vvel_mean            =  -1.3196124565502870E-05
(PID.TID 0000.0001) %MON dynstat_vvel_sd              =   1.2249356648075447E-02
(PID.TID 0000.0001) %MON dynstat_vvel_del2            =   2.5325650314171608E-05
(PID.TID 0000.0001) %MON dynstat_wvel_max             =   7.5976289554091636E-04
(PID.TID 0000.0001) %MON dynstat_wvel_min             =  -6.4643200312275440E-04
(PID.TID 0000.0001) %MON dynstat_wvel_mean            =   2.4227459341402044E-14
(PID.TID 0000.0001) %MON dynstat_wvel_sd              =   1.1769360645062244E-05
(PID.TID 0000.0001) %MON dynstat_wvel_del2            =   2.1562404193923556E-08
(PID.TID 0000.0001) %MON dynstat_theta_max            =   3.1915518999099731E+01
(PID.TID 0000.0001) %MON dynstat_theta_min            =  -2.6553137600421906E+00
(PID.TID 0000.0001) %MON dynstat_theta_mean           =   3.6060311887023979E+00
(PID.TID 0000.0001) %MON dynstat_theta_sd             =   4.4509115657241498E+00
(PID.TID 0000.0001) %MON dynstat_theta_del2           =   3.9949214702955708E-04
(PID.TID 0000.0001) %MON dynstat_salt_max             =   3.9527606964111328E+01
(PID.TID 0000.0001) %MON dynstat_salt_min             =   2.6703523635864258E+01
(PID.TID 0000.0001) %MON dynstat_salt_mean            =   3.4722018340635145E+01
(PID.TID 0000.0001) %MON dynstat_salt_sd              =   3.6479287973535768E-01
(PID.TID 0000.0001) %MON dynstat_salt_del2            =   7.5925026753581341E-05
(PID.TID 0000.0001) %MON dynstat_sst_max              =   3.1915518999099731E+01
(PID.TID 0000.0001) %MON dynstat_sst_min              =  -1.9896744489669800E+00
(PID.TID 0000.0001) %MON dynstat_sst_mean             =   1.9145589998657087E+01
(PID.TID 0000.0001) %MON dynstat_sst_sd               =   9.5373560712488707E+00
(PID.TID 0000.0001) %MON dynstat_sst_del2             =   2.4310046073318069E-03
(PID.TID 0000.0001) %MON dynstat_sss_max              =   3.9527606964111328E+01
(PID.TID 0000.0001) %MON dynstat_sss_min              =   2.6703523635864258E+01
(PID.TID 0000.0001) %MON dynstat_sss_mean             =   3.4859354483906252E+01
(PID.TID 0000.0001) %MON dynstat_sss_sd               =   1.0772987818795741E+00
(PID.TID 0000.0001) %MON dynstat_sss_del2             =   6.4738030269893311E-04
(PID.TID 0000.0001) %MON forcing_qnet_max             =   0.0000000000000000E+00
(PID.TID 0000.0001) %MON forcing_qnet_min             =   0.0000000000000000E+00
(PID.TID 0000.0001) %MON forcing_qnet_mean            =   0.0000000000000000E+00
(PID.TID 0000.0001) %MON forcing_qnet_sd              =   0.0000000000000000E+00
(PID.TID 0000.0001) %MON forcing_qnet_del2            =   0.0000000000000000E+00
(PID.TID 0000.0001) %MON forcing_qsw_max              =   0.0000000000000000E+00
(PID.TID 0000.0001) %MON forcing_qsw_min              =   0.0000000000000000E+00
(PID.TID 0000.0001) %MON forcing_qsw_mean             =   0.0000000000000000E+00
(PID.TID 0000.0001) %MON forcing_qsw_sd               =   0.0000000000000000E+00
(PID.TID 0000.0001) %MON forcing_qsw_del2             =   0.0000000000000000E+00
(PID.TID 0000.0001) %MON forcing_empmr_max            =   0.0000000000000000E+00
(PID.TID 0000.0001) %MON forcing_empmr_min            =   0.0000000000000000E+00
(PID.TID 0000.0001) %MON forcing_empmr_mean           =   0.0000000000000000E+00
(PID.TID 0000.0001) %MON forcing_empmr_sd             =   0.0000000000000000E+00
(PID.TID 0000.0001) %MON forcing_empmr_del2           =   0.0000000000000000E+00
(PID.TID 0000.0001) %MON forcing_fu_max               =   0.0000000000000000E+00
(PID.TID 0000.0001) %MON forcing_fu_min               =   0.0000000000000000E+00
(PID.TID 0000.0001) %MON forcing_fu_mean              =   0.0000000000000000E+00
(PID.TID 0000.0001) %MON forcing_fu_sd                =   0.0000000000000000E+00
(PID.TID 0000.0001) %MON forcing_fu_del2              =   0.0000000000000000E+00
(PID.TID 0000.0001) %MON forcing_fv_max               =   0.0000000000000000E+00
(PID.TID 0000.0001) %MON forcing_fv_min               =   0.0000000000000000E+00
(PID.TID 0000.0001) %MON forcing_fv_mean              =   0.0000000000000000E+00
(PID.TID 0000.0001) %MON forcing_fv_sd                =   0.0000000000000000E+00
(PID.TID 0000.0001) %MON forcing_fv_del2              =   0.0000000000000000E+00
(PID.TID 0000.0001) %MON advcfl_uvel_max              =   1.0936717750096733E-01
(PID.TID 0000.0001) %MON advcfl_vvel_max              =   1.1404526336257088E-01
(PID.TID 0000.0001) %MON advcfl_wvel_max              =   3.6468618985963991E-01
(PID.TID 0000.0001) %MON advcfl_W_hf_max              =   4.1027196359209483E-01
(PID.TID 0000.0001) %MON pe_b_mean                    =   0.0000000000000000E+00
(PID.TID 0000.0001) %MON ke_max                       =   6.9872171825417395E-01
(PID.TID 0000.0001) %MON ke_mean                      =   3.3476980871450493E-04
(PID.TID 0000.0001) %MON ke_vol                       =   1.3258927395735470E+18
(PID.TID 0000.0001) %MON vort_r_min                   =  -1.1533158271791189E-05
(PID.TID 0000.0001) %MON vort_r_max                   =   1.2703322554286164E-05
(PID.TID 0000.0001) %MON vort_a_mean                  =  -2.1443554656117779E-05
(PID.TID 0000.0001) %MON vort_a_sd                    =   7.3250394401202837E-05
(PID.TID 0000.0001) %MON vort_p_mean                  =  -2.3136237714787806E-05
(PID.TID 0000.0001) %MON vort_p_sd                    =   8.5528062235591828E-05
(PID.TID 0000.0001) %MON surfExpan_theta_mean         =  -1.0748087439884701E-07
(PID.TID 0000.0001) %MON surfExpan_salt_mean          =   9.0451251760431549E-09
(PID.TID 0000.0001) // =======================================================
(PID.TID 0000.0001) // End MONITOR dynamic field statistics
(PID.TID 0000.0001) // =======================================================
(PID.TID 0000.0001) // =======================================================
(PID.TID 0000.0001) // Begin MONITOR ptracer field statistics
(PID.TID 0000.0001) // =======================================================
(PID.TID 0000.0001) %MON trcstat_ptracer01_max        =   2.4044997838501927E+03
(PID.TID 0000.0001) %MON trcstat_ptracer01_min        =   1.8501839903149444E+03
(PID.TID 0000.0001) %MON trcstat_ptracer01_mean       =   2.2546504328430156E+03
(PID.TID 0000.0001) %MON trcstat_ptracer01_sd         =   7.8576103842183457E+01
(PID.TID 0000.0001) %MON trcstat_ptracer01_del2       =   7.3327643607897681E-03
(PID.TID 0000.0001) %MON trcstat_ptracer02_max        =   2.1615031323653806E+00
(PID.TID 0000.0001) %MON trcstat_ptracer02_min        =  -6.2062687284554427E-03
(PID.TID 0000.0001) %MON trcstat_ptracer02_mean       =   1.9423313420176970E-03
(PID.TID 0000.0001) %MON trcstat_ptracer02_sd         =   1.8244840250929859E-02
(PID.TID 0000.0001) %MON trcstat_ptracer02_del2       =   2.8749739633534119E-05
(PID.TID 0000.0001) %MON trcstat_ptracer03_max        =   3.0213943812433453E+00
(PID.TID 0000.0001) %MON trcstat_ptracer03_min        =  -1.4978391050399914E-07
(PID.TID 0000.0001) %MON trcstat_ptracer03_mean       =   5.8081478609417741E-03
(PID.TID 0000.0001) %MON trcstat_ptracer03_sd         =   2.4280549163872144E-02
(PID.TID 0000.0001) %MON trcstat_ptracer03_del2       =   2.9032894642619016E-05
(PID.TID 0000.0001) %MON trcstat_ptracer04_max        =   5.0588648747271968E+01
(PID.TID 0000.0001) %MON trcstat_ptracer04_min        =  -3.0236171256481110E-02
(PID.TID 0000.0001) %MON trcstat_ptracer04_mean       =   3.1007699791107520E+01
(PID.TID 0000.0001) %MON trcstat_ptracer04_sd         =   9.0049187263049451E+00
(PID.TID 0000.0001) %MON trcstat_ptracer04_del2       =   7.2841080201514351E-04
(PID.TID 0000.0001) %MON trcstat_ptracer05_max        =   3.7931407480379198E+00
(PID.TID 0000.0001) %MON trcstat_ptracer05_min        =   2.1157005938413409E-02
(PID.TID 0000.0001) %MON trcstat_ptracer05_mean       =   2.1762315616957220E+00
(PID.TID 0000.0001) %MON trcstat_ptracer05_sd         =   6.4445969930034797E-01
(PID.TID 0000.0001) %MON trcstat_ptracer05_del2       =   4.7916295385533714E-05
(PID.TID 0000.0001) %MON trcstat_ptracer06_max        =   2.6048370456264098E+02
(PID.TID 0000.0001) %MON trcstat_ptracer06_min        =   2.9546231847834764E-01
(PID.TID 0000.0001) %MON trcstat_ptracer06_mean       =   9.0810251886617579E+01
(PID.TID 0000.0001) %MON trcstat_ptracer06_sd         =   5.2139308019924378E+01
(PID.TID 0000.0001) %MON trcstat_ptracer06_del2       =   1.4892458916221508E-03
(PID.TID 0000.0001) %MON trcstat_ptracer07_max        =   1.0974598065877862E-03
(PID.TID 0000.0001) %MON trcstat_ptracer07_min        =   1.2008391346676821E-07
(PID.TID 0000.0001) %MON trcstat_ptracer07_mean       =   6.2099299568303017E-04
(PID.TID 0000.0001) %MON trcstat_ptracer07_sd         =   1.7818801201087165E-04
(PID.TID 0000.0001) %MON trcstat_ptracer07_del2       =   6.1056105455284297E-08
(PID.TID 0000.0001) %MON trcstat_ptracer08_max        =   5.1879439244885830E+01
(PID.TID 0000.0001) %MON trcstat_ptracer08_min        =  -2.1031110358722387E-06
(PID.TID 0000.0001) %MON trcstat_ptracer08_mean       =   2.2493909999055409E-01
(PID.TID 0000.0001) %MON trcstat_ptracer08_sd         =   1.3152174960528096E+00
(PID.TID 0000.0001) %MON trcstat_ptracer08_del2       =   1.2586150406454599E-03
(PID.TID 0000.0001) %MON trcstat_ptracer09_max        =   7.2005927732444377E+00
(PID.TID 0000.0001) %MON trcstat_ptracer09_min        =  -2.5286219083114627E-07
(PID.TID 0000.0001) %MON trcstat_ptracer09_mean       =   3.0206827055081296E-02
(PID.TID 0000.0001) %MON trcstat_ptracer09_sd         =   1.7705533783193303E-01
(PID.TID 0000.0001) %MON trcstat_ptracer09_del2       =   1.6992705632608312E-04
(PID.TID 0000.0001) %MON trcstat_ptracer10_max        =   4.3232866530446351E-01
(PID.TID 0000.0001) %MON trcstat_ptracer10_min        =  -1.5356410381323281E-08
(PID.TID 0000.0001) %MON trcstat_ptracer10_mean       =   1.8744925007244749E-03
(PID.TID 0000.0001) %MON trcstat_ptracer10_sd         =   1.0960145798558281E-02
(PID.TID 0000.0001) %MON trcstat_ptracer10_del2       =   1.0488458747130381E-05
(PID.TID 0000.0001) %MON trcstat_ptracer11_max        =   4.9916631500747139E-04
(PID.TID 0000.0001) %MON trcstat_ptracer11_min        =  -1.8761633526352903E-11
(PID.TID 0000.0001) %MON trcstat_ptracer11_mean       =   1.9013603783248053E-06
(PID.TID 0000.0001) %MON trcstat_ptracer11_sd         =   1.1178433568244814E-05
(PID.TID 0000.0001) %MON trcstat_ptracer11_del2       =   1.0791195551586156E-08
(PID.TID 0000.0001) %MON trcstat_ptracer12_max        =   1.3305770556195673E+03
(PID.TID 0000.0001) %MON trcstat_ptracer12_min        =   1.0136697082251292E-04
(PID.TID 0000.0001) %MON trcstat_ptracer12_mean       =   1.6607708578365460E-01
(PID.TID 0000.0001) %MON trcstat_ptracer12_sd         =   2.3015287149532320E+00
(PID.TID 0000.0001) %MON trcstat_ptracer12_del2       =   8.9538278780704954E-04
(PID.TID 0000.0001) %MON trcstat_ptracer13_max        =   1.8790427391183451E+02
(PID.TID 0000.0001) %MON trcstat_ptracer13_min        =   1.3529583738039304E-05
(PID.TID 0000.0001) %MON trcstat_ptracer13_mean       =   2.2483469931673328E-02
(PID.TID 0000.0001) %MON trcstat_ptracer13_sd         =   3.2758781898285749E-01
(PID.TID 0000.0001) %MON trcstat_ptracer13_del2       =   1.2301716363804962E-04
(PID.TID 0000.0001) %MON trcstat_ptracer14_max        =   1.1089938980282772E+01
(PID.TID 0000.0001) %MON trcstat_ptracer14_min        =   8.4472477804318833E-07
(PID.TID 0000.0001) %MON trcstat_ptracer14_mean       =   1.3839798129425321E-03
(PID.TID 0000.0001) %MON trcstat_ptracer14_sd         =   1.9181070892128803E-02
(PID.TID 0000.0001) %MON trcstat_ptracer14_del2       =   7.4615230112908916E-06
(PID.TID 0000.0001) %MON trcstat_ptracer15_max        =   1.2251442375566603E+02
(PID.TID 0000.0001) %MON trcstat_ptracer15_min        =   5.7838942037635738E-07
(PID.TID 0000.0001) %MON trcstat_ptracer15_mean       =   1.3521330403341741E-01
(PID.TID 0000.0001) %MON trcstat_ptracer15_sd         =   3.9836177810767709E-01
(PID.TID 0000.0001) %MON trcstat_ptracer15_del2       =   2.6640722514677506E-04
(PID.TID 0000.0001) %MON trcstat_ptracer16_max        =   1.2398038050805211E-02
(PID.TID 0000.0001) %MON trcstat_ptracer16_min        =   8.4647319505388031E-10
(PID.TID 0000.0001) %MON trcstat_ptracer16_mean       =   1.4264541577710139E-06
(PID.TID 0000.0001) %MON trcstat_ptracer16_sd         =   2.1779641228006961E-05
(PID.TID 0000.0001) %MON trcstat_ptracer16_del2       =   7.9413678221596007E-09
(PID.TID 0000.0001) %MON trcstat_ptracer17_max        =   3.9037462248897867E+02
(PID.TID 0000.0001) %MON trcstat_ptracer17_min        =   4.8676525827743412E-07
(PID.TID 0000.0001) %MON trcstat_ptracer17_mean       =   2.2830005461914091E-01
(PID.TID 0000.0001) %MON trcstat_ptracer17_sd         =   1.0005010295055350E+00
(PID.TID 0000.0001) %MON trcstat_ptracer17_del2       =   1.5404426835005872E-03
(PID.TID 0000.0001) %MON trcstat_ptracer18_max        =   2.4565616494596088E+03
(PID.TID 0000.0001) %MON trcstat_ptracer18_min        =   2.1808932657355631E+03
(PID.TID 0000.0001) %MON trcstat_ptracer18_mean       =   2.3632505854772094E+03
(PID.TID 0000.0001) %MON trcstat_ptracer18_sd         =   4.2539601434567629E+01
(PID.TID 0000.0001) %MON trcstat_ptracer18_del2       =   2.4344681120533852E-03
(PID.TID 0000.0001) %MON trcstat_ptracer19_max        =   3.9963936931815664E+02
(PID.TID 0000.0001) %MON trcstat_ptracer19_min        =   3.1135246183692833E+00
(PID.TID 0000.0001) %MON trcstat_ptracer19_mean       =   1.7468682036026405E+02
(PID.TID 0000.0001) %MON trcstat_ptracer19_sd         =   6.2899501732901761E+01
(PID.TID 0000.0001) %MON trcstat_ptracer19_del2       =   5.0607304141889013E-03
(PID.TID 0000.0001) %MON trcstat_ptracer20_max        =   8.1292570823814692E-01
(PID.TID 0000.0001) %MON trcstat_ptracer20_min        =   8.7434988415860101E-08
(PID.TID 0000.0001) %MON trcstat_ptracer20_mean       =   1.1456814445992938E-03
(PID.TID 0000.0001) %MON trcstat_ptracer20_sd         =   9.2959470160961996E-03
(PID.TID 0000.0001) %MON trcstat_ptracer20_del2       =   1.2192204565245915E-05
(PID.TID 0000.0001) %MON trcstat_ptracer21_max        =   8.2590839269752825E-01
(PID.TID 0000.0001) %MON trcstat_ptracer21_min        =   9.2122895576402652E-08
(PID.TID 0000.0001) %MON trcstat_ptracer21_mean       =   1.1506400188197512E-03
(PID.TID 0000.0001) %MON trcstat_ptracer21_sd         =   9.3323283091861099E-03
(PID.TID 0000.0001) %MON trcstat_ptracer21_del2       =   1.2250233773803734E-05
(PID.TID 0000.0001) %MON trcstat_ptracer22_max        =   8.3784575959738650E-01
(PID.TID 0000.0001) %MON trcstat_ptracer22_min        =   9.8897302252835482E-08
(PID.TID 0000.0001) %MON trcstat_ptracer22_mean       =   1.1549932163786741E-03
(PID.TID 0000.0001) %MON trcstat_ptracer22_sd         =   9.3649587838006750E-03
(PID.TID 0000.0001) %MON trcstat_ptracer22_del2       =   1.2304186613840564E-05
(PID.TID 0000.0001) %MON trcstat_ptracer23_max        =   8.4882118948446961E-01
(PID.TID 0000.0001) %MON trcstat_ptracer23_min        =   1.0912594950803005E-07
(PID.TID 0000.0001) %MON trcstat_ptracer23_mean       =   1.1584331095394959E-03
(PID.TID 0000.0001) %MON trcstat_ptracer23_sd         =   9.3927318329597373E-03
(PID.TID 0000.0001) %MON trcstat_ptracer23_del2       =   1.2355809361372340E-05
(PID.TID 0000.0001) %MON trcstat_ptracer24_max        =   8.4647710308453555E-02
(PID.TID 0000.0001) %MON trcstat_ptracer24_min        =   1.2587879128183942E-08
(PID.TID 0000.0001) %MON trcstat_ptracer24_mean       =   1.1460440516641194E-04
(PID.TID 0000.0001) %MON trcstat_ptracer24_sd         =   9.3303591905949238E-04
(PID.TID 0000.0001) %MON trcstat_ptracer24_del2       =   1.2375574052296694E-06
(PID.TID 0000.0001) %MON trcstat_ptracer25_max        =   9.6254585505481127E-01
(PID.TID 0000.0001) %MON trcstat_ptracer25_min        =   1.2610770893224105E-07
(PID.TID 0000.0001) %MON trcstat_ptracer25_mean       =   1.2647773464175775E-03
(PID.TID 0000.0001) %MON trcstat_ptracer25_sd         =   1.0130415515619587E-02
(PID.TID 0000.0001) %MON trcstat_ptracer25_del2       =   1.3257162542777954E-05
(PID.TID 0000.0001) %MON trcstat_ptracer26_max        =   1.0372619047640239E+00
(PID.TID 0000.0001) %MON trcstat_ptracer26_min        =   1.5204171842282782E-07
(PID.TID 0000.0001) %MON trcstat_ptracer26_mean       =   1.3510248707696096E-03
(PID.TID 0000.0001) %MON trcstat_ptracer26_sd         =   1.0920329880556476E-02
(PID.TID 0000.0001) %MON trcstat_ptracer26_del2       =   1.4685111207674553E-05
(PID.TID 0000.0001) %MON trcstat_ptracer27_max        =   8.3250123695274417E-02
(PID.TID 0000.0001) %MON trcstat_ptracer27_min        =   1.5160860315252101E-08
(PID.TID 0000.0001) %MON trcstat_ptracer27_mean       =   1.1318631363935273E-04
(PID.TID 0000.0001) %MON trcstat_ptracer27_sd         =   9.2402660528245859E-04
(PID.TID 0000.0001) %MON trcstat_ptracer27_del2       =   1.2272950240350403E-06
(PID.TID 0000.0001) %MON trcstat_ptracer28_max        =   9.3700356998761136E-01
(PID.TID 0000.0001) %MON trcstat_ptracer28_min        =   1.5185938009765423E-07
(PID.TID 0000.0001) %MON trcstat_ptracer28_mean       =   1.2308157236544650E-03
(PID.TID 0000.0001) %MON trcstat_ptracer28_sd         =   9.9037936864820562E-03
(PID.TID 0000.0001) %MON trcstat_ptracer28_del2       =   1.3017998151751542E-05
(PID.TID 0000.0001) %MON trcstat_ptracer29_max        =   1.0113916579791262E+00
(PID.TID 0000.0001) %MON trcstat_ptracer29_min        =   1.8119488466314811E-07
(PID.TID 0000.0001) %MON trcstat_ptracer29_mean       =   1.2993529428765786E-03
(PID.TID 0000.0001) %MON trcstat_ptracer29_sd         =   1.0530258087841912E-02
(PID.TID 0000.0001) %MON trcstat_ptracer29_del2       =   1.4159176331374154E-05
(PID.TID 0000.0001) %MON trcstat_ptracer30_max        =   8.2403303177722459E-02
(PID.TID 0000.0001) %MON trcstat_ptracer30_min        =   1.8109176295001478E-08
(PID.TID 0000.0001) %MON trcstat_ptracer30_mean       =   1.1201399126665330E-04
(PID.TID 0000.0001) %MON trcstat_ptracer30_sd         =   9.1725376211325405E-04
(PID.TID 0000.0001) %MON trcstat_ptracer30_del2       =   1.2217162732870785E-06
(PID.TID 0000.0001) %MON trcstat_ptracer31_max        =   9.1561267414095127E-01
(PID.TID 0000.0001) %MON trcstat_ptracer31_min        =   1.8116388482682282E-07
(PID.TID 0000.0001) %MON trcstat_ptracer31_mean       =   1.2018505712444423E-03
(PID.TID 0000.0001) %MON trcstat_ptracer31_sd         =   9.7226068058818543E-03
(PID.TID 0000.0001) %MON trcstat_ptracer31_del2       =   1.2842705969370401E-05
(PID.TID 0000.0001) %MON trcstat_ptracer32_max        =   9.8165624465157220E-01
(PID.TID 0000.0001) %MON trcstat_ptracer32_min        =   1.9468678891958320E-07
(PID.TID 0000.0001) %MON trcstat_ptracer32_mean       =   1.2557084406886320E-03
(PID.TID 0000.0001) %MON trcstat_ptracer32_sd         =   1.0209875775737818E-02
(PID.TID 0000.0001) %MON trcstat_ptracer32_del2       =   1.3713358960482265E-05
(PID.TID 0000.0001) %MON trcstat_ptracer33_max        =   8.1583717860877730E-02
(PID.TID 0000.0001) %MON trcstat_ptracer33_min        =   1.9456447659296352E-08
(PID.TID 0000.0001) %MON trcstat_ptracer33_mean       =   1.1102227606431786E-04
(PID.TID 0000.0001) %MON trcstat_ptracer33_sd         =   9.1140717424600395E-04
(PID.TID 0000.0001) %MON trcstat_ptracer33_del2       =   1.2164754071905894E-06
(PID.TID 0000.0001) %MON trcstat_ptracer34_max        =   8.9368200913947937E-01
(PID.TID 0000.0001) %MON trcstat_ptracer34_min        =   1.9464826612606579E-07
(PID.TID 0000.0001) %MON trcstat_ptracer34_mean       =   1.1770801611189939E-03
(PID.TID 0000.0001) %MON trcstat_ptracer34_sd         =   9.5689929602823937E-03
(PID.TID 0000.0001) %MON trcstat_ptracer34_del2       =   1.2685516497597843E-05
(PID.TID 0000.0001) %MON trcstat_ptracer35_max        =   9.4881758204413735E-01
(PID.TID 0000.0001) %MON trcstat_ptracer35_min        =   2.1381222612294102E-07
(PID.TID 0000.0001) %MON trcstat_ptracer35_mean       =   1.2191756509845010E-03
(PID.TID 0000.0001) %MON trcstat_ptracer35_sd         =   9.9464627010825268E-03
(PID.TID 0000.0001) %MON trcstat_ptracer35_del2       =   1.3336665301188072E-05
(PID.TID 0000.0001) %MON trcstat_ptracer36_max        =   8.0782440003251563E-02
(PID.TID 0000.0001) %MON trcstat_ptracer36_min        =   2.1366519309196861E-08
(PID.TID 0000.0001) %MON trcstat_ptracer36_mean       =   1.1018601458893907E-04
(PID.TID 0000.0001) %MON trcstat_ptracer36_sd         =   9.0631326977380015E-04
(PID.TID 0000.0001) %MON trcstat_ptracer36_del2       =   1.2114424879875367E-06
(PID.TID 0000.0001) %MON trcstat_ptracer37_max        =   8.7168534946052356E-01
(PID.TID 0000.0001) %MON trcstat_ptracer37_min        =   2.1376362199976186E-07
(PID.TID 0000.0001) %MON trcstat_ptracer37_mean       =   1.1561011768269338E-03
(PID.TID 0000.0001) %MON trcstat_ptracer37_sd         =   9.4379153270611367E-03
(PID.TID 0000.0001) %MON trcstat_ptracer37_del2       =   1.2543551070658318E-05
(PID.TID 0000.0001) %MON trcstat_ptracer38_max        =   9.1420955041325769E-01
(PID.TID 0000.0001) %MON trcstat_ptracer38_min        =   2.4109869312969851E-07
(PID.TID 0000.0001) %MON trcstat_ptracer38_mean       =   1.1888087108494168E-03
(PID.TID 0000.0001) %MON trcstat_ptracer38_sd         =   9.7289089014265823E-03
(PID.TID 0000.0001) %MON trcstat_ptracer38_del2       =   1.3019199768879040E-05
(PID.TID 0000.0001) %MON trcstat_ptracer39_max        =   8.5014937684929415E-01
(PID.TID 0000.0001) %MON trcstat_ptracer39_min        =   2.4103634041721731E-07
(PID.TID 0000.0001) %MON trcstat_ptracer39_mean       =   1.1384488467753697E-03
(PID.TID 0000.0001) %MON trcstat_ptracer39_sd         =   9.3253526221036831E-03
(PID.TID 0000.0001) %MON trcstat_ptracer39_del2       =   1.2415195930443035E-05
(PID.TID 0000.0001) %MON trcstat_ptracer40_max        =   8.8128982428820746E-01
(PID.TID 0000.0001) %MON trcstat_ptracer40_min        =   2.7594144780444601E-07
(PID.TID 0000.0001) %MON trcstat_ptracer40_mean       =   1.1637928387220118E-03
(PID.TID 0000.0001) %MON trcstat_ptracer40_sd         =   9.5505677077146918E-03
(PID.TID 0000.0001) %MON trcstat_ptracer40_del2       =   1.2763333256074696E-05
(PID.TID 0000.0001) %MON trcstat_ptracer41_max        =   8.4760420683333326E-01
(PID.TID 0000.0001) %MON trcstat_ptracer41_min        =   3.2088899485634805E-07
(PID.TID 0000.0001) %MON trcstat_ptracer41_mean       =   1.1430296842411954E-03
(PID.TID 0000.0001) %MON trcstat_ptracer41_sd         =   9.3956297108318213E-03
(PID.TID 0000.0001) %MON trcstat_ptracer41_del2       =   1.2528433082260403E-05
(PID.TID 0000.0001) %MON trcstat_ptracer42_max        =   8.2644279256831876E-01
(PID.TID 0000.0001) %MON trcstat_ptracer42_min        =   3.8430573612828263E-07
(PID.TID 0000.0001) %MON trcstat_ptracer42_mean       =   1.1259496091405557E-03
(PID.TID 0000.0001) %MON trcstat_ptracer42_sd         =   9.2623100528565344E-03
(PID.TID 0000.0001) %MON trcstat_ptracer42_del2       =   1.2323120596533411E-05
(PID.TID 0000.0001) %MON trcstat_ptracer43_max        =   8.2339465729488659E-01
(PID.TID 0000.0001) %MON trcstat_ptracer43_min        =   4.8238168041139995E-07
(PID.TID 0000.0001) %MON trcstat_ptracer43_mean       =   1.1119378871727054E-03
(PID.TID 0000.0001) %MON trcstat_ptracer43_sd         =   9.1452901911914693E-03
(PID.TID 0000.0001) %MON trcstat_ptracer43_del2       =   1.2139075755752844E-05
(PID.TID 0000.0001) %MON trcstat_ptracer44_max        =   8.1401228062859876E-01
(PID.TID 0000.0001) %MON trcstat_ptracer44_min        =   7.7510219955027607E-08
(PID.TID 0000.0001) %MON trcstat_ptracer44_mean       =   1.0986649989890756E-03
(PID.TID 0000.0001) %MON trcstat_ptracer44_sd         =   9.1084871923730742E-03
(PID.TID 0000.0001) %MON trcstat_ptracer44_del2       =   1.2321105156885742E-05
(PID.TID 0000.0001) %MON trcstat_ptracer45_max        =   8.1046874164074845E-01
(PID.TID 0000.0001) %MON trcstat_ptracer45_min        =   7.7510097029786832E-08
(PID.TID 0000.0001) %MON trcstat_ptracer45_mean       =   1.0985583765958519E-03
(PID.TID 0000.0001) %MON trcstat_ptracer45_sd         =   9.1048024683360266E-03
(PID.TID 0000.0001) %MON trcstat_ptracer45_del2       =   1.2304583244144915E-05
(PID.TID 0000.0001) %MON trcstat_ptracer46_max        =   8.0750801842900588E-01
(PID.TID 0000.0001) %MON trcstat_ptracer46_min        =   7.7509995245948754E-08
(PID.TID 0000.0001) %MON trcstat_ptracer46_mean       =   1.0984697324166258E-03
(PID.TID 0000.0001) %MON trcstat_ptracer46_sd         =   9.1017411842868774E-03
(PID.TID 0000.0001) %MON trcstat_ptracer46_del2       =   1.2290850905819142E-05
(PID.TID 0000.0001) %MON trcstat_ptracer47_max        =   8.0503674587360541E-01
(PID.TID 0000.0001) %MON trcstat_ptracer47_min        =   7.7509910972287430E-08
(PID.TID 0000.0001) %MON trcstat_ptracer47_mean       =   1.0983960386558498E-03
(PID.TID 0000.0001) %MON trcstat_ptracer47_sd         =   9.0991980889753975E-03
(PID.TID 0000.0001) %MON trcstat_ptracer47_del2       =   1.2279439740026648E-05
(PID.TID 0000.0001) %MON trcstat_ptracer48_max        =   8.0503919241187138E-01
(PID.TID 0000.0001) %MON trcstat_ptracer48_min        =   7.7509911292750871E-08
(PID.TID 0000.0001) %MON trcstat_ptracer48_mean       =   1.0984065414801967E-03
(PID.TID 0000.0001) %MON trcstat_ptracer48_sd         =   9.0994086562779502E-03
(PID.TID 0000.0001) %MON trcstat_ptracer48_del2       =   1.2280527824439408E-05
(PID.TID 0000.0001) %MON trcstat_ptracer49_max        =   8.1682408498247894E-01
(PID.TID 0000.0001) %MON trcstat_ptracer49_min        =   7.7510676483276105E-08
(PID.TID 0000.0001) %MON trcstat_ptracer49_mean       =   1.0989750885440324E-03
(PID.TID 0000.0001) %MON trcstat_ptracer49_sd         =   9.1169555822729724E-03
(PID.TID 0000.0001) %MON trcstat_ptracer49_del2       =   1.2351906166793451E-05
(PID.TID 0000.0001) %MON trcstat_ptracer50_max        =   8.1250488302158086E-01
(PID.TID 0000.0001) %MON trcstat_ptracer50_min        =   7.7510474118357697E-08
(PID.TID 0000.0001) %MON trcstat_ptracer50_mean       =   1.0988029066100640E-03
(PID.TID 0000.0001) %MON trcstat_ptracer50_sd         =   9.1114841042552949E-03
(PID.TID 0000.0001) %MON trcstat_ptracer50_del2       =   1.2328449133537610E-05
(PID.TID 0000.0001) %MON trcstat_ptracer51_max        =   8.0897334364000928E-01
(PID.TID 0000.0001) %MON trcstat_ptracer51_min        =   7.7510306672591814E-08
(PID.TID 0000.0001) %MON trcstat_ptracer51_mean       =   1.0986629867563236E-03
(PID.TID 0000.0001) %MON trcstat_ptracer51_sd         =   9.1070200146560944E-03
(PID.TID 0000.0001) %MON trcstat_ptracer51_del2       =   1.2309357682672877E-05
(PID.TID 0000.0001) %MON trcstat_ptracer52_max        =   8.0607295438969806E-01
(PID.TID 0000.0001) %MON trcstat_ptracer52_min        =   7.7510168140467799E-08
(PID.TID 0000.0001) %MON trcstat_ptracer52_mean       =   1.0985491333457564E-03
(PID.TID 0000.0001) %MON trcstat_ptracer52_sd         =   9.1033750209587577E-03
(PID.TID 0000.0001) %MON trcstat_ptracer52_del2       =   1.2293806625530693E-05
(PID.TID 0000.0001) %MON trcstat_ptracer53_max        =   8.0310598613728557E-01
(PID.TID 0000.0001) %MON trcstat_ptracer53_min        =   7.7510004957149955E-08
(PID.TID 0000.0001) %MON trcstat_ptracer53_mean       =   1.0984248285138040E-03
(PID.TID 0000.0001) %MON trcstat_ptracer53_sd         =   9.0994387878414809E-03
(PID.TID 0000.0001) %MON trcstat_ptracer53_del2       =   1.2277371124032045E-05
(PID.TID 0000.0001) %MON trcstat_ptracer54_max        =   7.9614082102805894E-01
(PID.TID 0000.0001) %MON trcstat_ptracer54_min        =   7.7509613725092585E-08
(PID.TID 0000.0001) %MON trcstat_ptracer54_mean       =   1.0981335743504099E-03
(PID.TID 0000.0001) %MON trcstat_ptracer54_sd         =   9.0901466362888778E-03
(PID.TID 0000.0001) %MON trcstat_ptracer54_del2       =   1.2238734277463306E-05
(PID.TID 0000.0001) %MON trcstat_ptracer55_max        =   7.9553465615039443E-01
(PID.TID 0000.0001) %MON trcstat_ptracer55_min        =   7.7509594977437223E-08
(PID.TID 0000.0001) %MON trcstat_ptracer55_mean       =   1.0981157934014530E-03
(PID.TID 0000.0001) %MON trcstat_ptracer55_sd         =   9.0895387746928024E-03
(PID.TID 0000.0001) %MON trcstat_ptracer55_del2       =   1.2235982704406389E-05
(PID.TID 0000.0001) %MON trcstat_ptracer56_max        =   7.9504148337071401E-01
(PID.TID 0000.0001) %MON trcstat_ptracer56_min        =   7.7509579464846300E-08
(PID.TID 0000.0001) %MON trcstat_ptracer56_mean       =   1.0981013241234514E-03
(PID.TID 0000.0001) %MON trcstat_ptracer56_sd         =   9.0890429185541272E-03
(PID.TID 0000.0001) %MON trcstat_ptracer56_del2       =   1.2233745811666222E-05
(PID.TID 0000.0001) %MON trcstat_ptracer57_max        =   7.9464068670948373E-01
(PID.TID 0000.0001) %MON trcstat_ptracer57_min        =   7.7509566628913676E-08
(PID.TID 0000.0001) %MON trcstat_ptracer57_mean       =   1.0980895271607298E-03
(PID.TID 0000.0001) %MON trcstat_ptracer57_sd         =   9.0886378409938216E-03
(PID.TID 0000.0001) %MON trcstat_ptracer57_del2       =   1.2231922794009023E-05
(PID.TID 0000.0001) %MON trcstat_ptracer58_max        =   2.0993264349228297E-01
(PID.TID 0000.0001) %MON trcstat_ptracer58_min        =   4.7000105103139683E-08
(PID.TID 0000.0001) %MON trcstat_ptracer58_mean       =   2.0897205109337189E-04
(PID.TID 0000.0001) %MON trcstat_ptracer58_sd         =   1.9500253690263863E-03
(PID.TID 0000.0001) %MON trcstat_ptracer58_del2       =   2.8402825955209068E-06
(PID.TID 0000.0001) %MON trcstat_ptracer59_max        =   2.1051310635382869E-01
(PID.TID 0000.0001) %MON trcstat_ptracer59_min        =   4.7798517482118718E-08
(PID.TID 0000.0001) %MON trcstat_ptracer59_mean       =   2.1366205004308555E-04
(PID.TID 0000.0001) %MON trcstat_ptracer59_sd         =   1.9791810289101772E-03
(PID.TID 0000.0001) %MON trcstat_ptracer59_del2       =   2.8700404666916444E-06
(PID.TID 0000.0001) %MON trcstat_ptracer60_max        =   2.1096705962567669E-01
(PID.TID 0000.0001) %MON trcstat_ptracer60_min        =   4.8913599448913140E-08
(PID.TID 0000.0001) %MON trcstat_ptracer60_mean       =   2.1817456113239528E-04
(PID.TID 0000.0001) %MON trcstat_ptracer60_sd         =   2.0077204245316851E-03
(PID.TID 0000.0001) %MON trcstat_ptracer60_del2       =   2.8994222571219773E-06
(PID.TID 0000.0001) %MON trcstat_ptracer61_max        =   2.1129990989389091E-01
(PID.TID 0000.0001) %MON trcstat_ptracer61_min        =   5.1022978345377730E-08
(PID.TID 0000.0001) %MON trcstat_ptracer61_mean       =   2.2241993292068223E-04
(PID.TID 0000.0001) %MON trcstat_ptracer61_sd         =   2.0354271247117394E-03
(PID.TID 0000.0001) %MON trcstat_ptracer61_del2       =   2.9287010655512668E-06
(PID.TID 0000.0001) %MON trcstat_ptracer62_max        =   2.1143604622047771E-02
(PID.TID 0000.0001) %MON trcstat_ptracer62_min        =   5.2144935898777294E-09
(PID.TID 0000.0001) %MON trcstat_ptracer62_mean       =   2.1621051991973066E-05
(PID.TID 0000.0001) %MON trcstat_ptracer62_sd         =   2.0065576965883368E-04
(PID.TID 0000.0001) %MON trcstat_ptracer62_del2       =   2.9113591338880098E-07
(PID.TID 0000.0001) %MON trcstat_ptracer63_max        =   2.1194611064621882E-01
(PID.TID 0000.0001) %MON trcstat_ptracer63_min        =   4.9576414654401852E-08
(PID.TID 0000.0001) %MON trcstat_ptracer63_mean       =   2.9183155198780376E-04
(PID.TID 0000.0001) %MON trcstat_ptracer63_sd         =   2.4495418375047482E-03
(PID.TID 0000.0001) %MON trcstat_ptracer63_del2       =   3.3575028470927949E-06
(PID.TID 0000.0001) %MON trcstat_ptracer64_max        =   2.5461513238378691E-01
(PID.TID 0000.0001) %MON trcstat_ptracer64_min        =   4.4973169207201708E-08
(PID.TID 0000.0001) %MON trcstat_ptracer64_mean       =   3.3656558712871803E-04
(PID.TID 0000.0001) %MON trcstat_ptracer64_sd         =   2.7644324662845460E-03
(PID.TID 0000.0001) %MON trcstat_ptracer64_del2       =   3.8184865968683452E-06
(PID.TID 0000.0001) %MON trcstat_ptracer65_max        =   2.1124786574409329E-02
(PID.TID 0000.0001) %MON trcstat_ptracer65_min        =   5.3571634701472118E-09
(PID.TID 0000.0001) %MON trcstat_ptracer65_mean       =   2.0517609211594776E-05
(PID.TID 0000.0001) %MON trcstat_ptracer65_sd         =   1.9435240722814428E-04
(PID.TID 0000.0001) %MON trcstat_ptracer65_del2       =   2.8534836000412482E-07
(PID.TID 0000.0001) %MON trcstat_ptracer66_max        =   2.1159009266644185E-01
(PID.TID 0000.0001) %MON trcstat_ptracer66_min        =   5.4875449771459120E-08
(PID.TID 0000.0001) %MON trcstat_ptracer66_mean       =   2.7702222976439613E-04
(PID.TID 0000.0001) %MON trcstat_ptracer66_sd         =   2.3671725661253730E-03
(PID.TID 0000.0001) %MON trcstat_ptracer66_del2       =   3.2747673944040970E-06
(PID.TID 0000.0001) %MON trcstat_ptracer67_max        =   2.3961516879719408E-01
(PID.TID 0000.0001) %MON trcstat_ptracer67_min        =   5.6916327274349855E-08
(PID.TID 0000.0001) %MON trcstat_ptracer67_mean       =   3.1800949443948297E-04
(PID.TID 0000.0001) %MON trcstat_ptracer67_sd         =   2.6500433043029807E-03
(PID.TID 0000.0001) %MON trcstat_ptracer67_del2       =   3.6737789721194167E-06
(PID.TID 0000.0001) %MON trcstat_ptracer68_max        =   2.1141407461104510E-02
(PID.TID 0000.0001) %MON trcstat_ptracer68_min        =   5.5610212048472547E-09
(PID.TID 0000.0001) %MON trcstat_ptracer68_mean       =   1.9461394638056831E-05
(PID.TID 0000.0001) %MON trcstat_ptracer68_sd         =   1.8837023108677690E-04
(PID.TID 0000.0001) %MON trcstat_ptracer68_del2       =   2.8027695458981973E-07
(PID.TID 0000.0001) %MON trcstat_ptracer69_max        =   2.1172794958205837E-01
(PID.TID 0000.0001) %MON trcstat_ptracer69_min        =   5.7187375559595981E-08
(PID.TID 0000.0001) %MON trcstat_ptracer69_mean       =   2.6323038160453236E-04
(PID.TID 0000.0001) %MON trcstat_ptracer69_sd         =   2.2929961148722509E-03
(PID.TID 0000.0001) %MON trcstat_ptracer69_del2       =   3.2045046101261761E-06
(PID.TID 0000.0001) %MON trcstat_ptracer70_max        =   2.2305600275853815E-01
(PID.TID 0000.0001) %MON trcstat_ptracer70_min        =   6.1060477950230414E-08
(PID.TID 0000.0001) %MON trcstat_ptracer70_mean       =   3.0130074030643736E-04
(PID.TID 0000.0001) %MON trcstat_ptracer70_sd         =   2.5501213280661691E-03
(PID.TID 0000.0001) %MON trcstat_ptracer70_del2       =   3.5467604852085338E-06
(PID.TID 0000.0001) %MON trcstat_ptracer71_max        =   2.1153309751518429E-02
(PID.TID 0000.0001) %MON trcstat_ptracer71_min        =   5.8501007773645915E-09
(PID.TID 0000.0001) %MON trcstat_ptracer71_mean       =   1.8441979175556076E-05
(PID.TID 0000.0001) %MON trcstat_ptracer71_sd         =   1.8246861119518802E-04
(PID.TID 0000.0001) %MON trcstat_ptracer71_del2       =   2.7519589168941631E-07
(PID.TID 0000.0001) %MON trcstat_ptracer72_max        =   2.1177912227721277E-01
(PID.TID 0000.0001) %MON trcstat_ptracer72_min        =   6.0432579749557988E-08
(PID.TID 0000.0001) %MON trcstat_ptracer72_mean       =   2.5024732788786404E-04
(PID.TID 0000.0001) %MON trcstat_ptracer72_sd         =   2.2227714036563684E-03
(PID.TID 0000.0001) %MON trcstat_ptracer72_del2       =   3.1368348626167016E-06
(PID.TID 0000.0001) %MON trcstat_ptracer73_max        =   2.1193935631666144E-01
(PID.TID 0000.0001) %MON trcstat_ptracer73_min        =   6.5788378455941492E-08
(PID.TID 0000.0001) %MON trcstat_ptracer73_mean       =   2.8613844204741296E-04
(PID.TID 0000.0001) %MON trcstat_ptracer73_sd         =   2.4609371523087085E-03
(PID.TID 0000.0001) %MON trcstat_ptracer73_del2       =   3.4338637600700942E-06
(PID.TID 0000.0001) %MON trcstat_ptracer74_max        =   2.1159349231110899E-02
(PID.TID 0000.0001) %MON trcstat_ptracer74_min        =   6.2580112008535957E-09
(PID.TID 0000.0001) %MON trcstat_ptracer74_mean       =   1.7456715735399303E-05
(PID.TID 0000.0001) %MON trcstat_ptracer74_sd         =   1.7663648166880413E-04
(PID.TID 0000.0001) %MON trcstat_ptracer74_del2       =   2.7009422808896105E-07
(PID.TID 0000.0001) %MON trcstat_ptracer75_max        =   2.1186841672938780E-01
(PID.TID 0000.0001) %MON trcstat_ptracer75_min        =   6.4982753724770767E-08
(PID.TID 0000.0001) %MON trcstat_ptracer75_mean       =   2.3796741020576368E-04
(PID.TID 0000.0001) %MON trcstat_ptracer75_sd         =   2.1553831985309051E-03
(PID.TID 0000.0001) %MON trcstat_ptracer75_del2       =   3.0711969317580389E-06
(PID.TID 0000.0001) %MON trcstat_ptracer76_max        =   2.1200366378390081E-01
(PID.TID 0000.0001) %MON trcstat_ptracer76_min        =   7.2413306712229506E-08
(PID.TID 0000.0001) %MON trcstat_ptracer76_mean       =   2.7224271013885274E-04
(PID.TID 0000.0001) %MON trcstat_ptracer76_sd         =   2.3795890555161460E-03
(PID.TID 0000.0001) %MON trcstat_ptracer76_del2       =   3.3325954601631416E-06
(PID.TID 0000.0001) %MON trcstat_ptracer77_max        =   2.1191891489979758E-01
(PID.TID 0000.0001) %MON trcstat_ptracer77_min        =   7.1357869247705783E-08
(PID.TID 0000.0001) %MON trcstat_ptracer77_mean       =   2.2627953472000720E-04
(PID.TID 0000.0001) %MON trcstat_ptracer77_sd         =   2.0899801024430766E-03
(PID.TID 0000.0001) %MON trcstat_ptracer77_del2       =   3.0074559082701007E-06
(PID.TID 0000.0001) %MON trcstat_ptracer78_max        =   2.1214932632932151E-01
(PID.TID 0000.0001) %MON trcstat_ptracer78_min        =   8.1702672515275766E-08
(PID.TID 0000.0001) %MON trcstat_ptracer78_mean       =   2.5938598000378911E-04
(PID.TID 0000.0001) %MON trcstat_ptracer78_sd         =   2.3045033636984930E-03
(PID.TID 0000.0001) %MON trcstat_ptracer78_del2       =   3.2428540278005276E-06
(PID.TID 0000.0001) %MON trcstat_ptracer79_max        =   2.1203166962691089E-01
(PID.TID 0000.0001) %MON trcstat_ptracer79_min        =   9.4739943165719500E-08
(PID.TID 0000.0001) %MON trcstat_ptracer79_mean       =   2.4728932400002742E-04
(PID.TID 0000.0001) %MON trcstat_ptracer79_sd         =   2.2320298540568755E-03
(PID.TID 0000.0001) %MON trcstat_ptracer79_del2       =   3.1560498920140096E-06
(PID.TID 0000.0001) %MON trcstat_ptracer80_max        =   2.1182286310171614E-01
(PID.TID 0000.0001) %MON trcstat_ptracer80_min        =   1.1307315027281642E-07
(PID.TID 0000.0001) %MON trcstat_ptracer80_mean       =   2.3581137073662537E-04
(PID.TID 0000.0001) %MON trcstat_ptracer80_sd         =   2.1619316671508781E-03
(PID.TID 0000.0001) %MON trcstat_ptracer80_del2       =   3.0738138528996942E-06
(PID.TID 0000.0001) %MON trcstat_ptracer81_max        =   2.1149350865538910E-01
(PID.TID 0000.0001) %MON trcstat_ptracer81_min        =   1.4187760170543453E-07
(PID.TID 0000.0001) %MON trcstat_ptracer81_mean       =   2.2481226208389833E-04
(PID.TID 0000.0001) %MON trcstat_ptracer81_sd         =   2.0931546675884184E-03
(PID.TID 0000.0001) %MON trcstat_ptracer81_del2       =   2.9942839187695258E-06
(PID.TID 0000.0001) // =======================================================
(PID.TID 0000.0001) // End MONITOR ptracers field statistics
(PID.TID 0000.0001) // =======================================================
 Compute Stats, Diag. #   1233  PP        vol(   0 ): 1.326E+18  Parms: SM P    MR      
 Compute Stats, Diag. #   1234  Nfix      vol(   0 ): 1.326E+18  Parms: SM P    MR      
 Compute Stats, Diag. #   1235  Denit     vol(   0 ): 1.326E+18  Parms: SM P    MR      
(PID.TID 0000.0001) DIAGSTATS_CLOSE_IO: close file: statsPP.0000000000.txt , unit=     9
(PID.TID 0000.0001) DIAGSTATS_CLOSE_IO: close file: statsNfix.0000000000.txt , unit=    10
(PID.TID 0000.0001) DIAGSTATS_CLOSE_IO: close file: statsDenit.0000000000.txt , unit=    16
 prec           1          64
(PID.TID 0000.0001) %CHECKPOINT         4 ckptA
(PID.TID 0000.0001)   Seconds in section "ALL                    [THE_MODEL_MAIN]":
(PID.TID 0000.0001)           User time:   105.76000000000001
(PID.TID 0000.0001)         System time:   84.280000000000001
(PID.TID 0000.0001)     Wall clock time:   194.07253503799438
(PID.TID 0000.0001)          No. starts:           1
(PID.TID 0000.0001)           No. stops:           1
(PID.TID 0000.0001)   Seconds in section "INITIALISE_FIXED       [THE_MODEL_MAIN]":
(PID.TID 0000.0001)           User time:   4.8300000000000001
(PID.TID 0000.0001)         System time:  0.20999999999999996
(PID.TID 0000.0001)     Wall clock time:   5.3523550033569336
(PID.TID 0000.0001)          No. starts:           1
(PID.TID 0000.0001)           No. stops:           1
(PID.TID 0000.0001)   Seconds in section "THE_MAIN_LOOP          [THE_MODEL_MAIN]":
(PID.TID 0000.0001)           User time:   100.93000000000001
(PID.TID 0000.0001)         System time:   84.069999999999993
(PID.TID 0000.0001)     Wall clock time:   188.71900892257690
(PID.TID 0000.0001)          No. starts:           1
(PID.TID 0000.0001)           No. stops:           1
(PID.TID 0000.0001)   Seconds in section "INITIALISE_VARIA    [THE_MAIN_LOOP]":
(PID.TID 0000.0001)           User time:   57.460000000000001
(PID.TID 0000.0001)         System time:   83.019999999999996
(PID.TID 0000.0001)     Wall clock time:   141.43035101890564
(PID.TID 0000.0001)          No. starts:           1
(PID.TID 0000.0001)           No. stops:           1
(PID.TID 0000.0001)   Seconds in section "MAIN LOOP           [THE_MAIN_LOOP]":
(PID.TID 0000.0001)           User time:   43.469999999999999
(PID.TID 0000.0001)         System time:   1.0499999999999972
(PID.TID 0000.0001)     Wall clock time:   47.288625001907349
(PID.TID 0000.0001)          No. starts:           1
(PID.TID 0000.0001)           No. stops:           1
(PID.TID 0000.0001)   Seconds in section "MAIN_DO_LOOP        [THE_MAIN_LOOP]":
(PID.TID 0000.0001)           User time:   43.470000000000013
(PID.TID 0000.0001)         System time:   1.0499999999999972
(PID.TID 0000.0001)     Wall clock time:   47.288573026657104
(PID.TID 0000.0001)          No. starts:           4
(PID.TID 0000.0001)           No. stops:           4
(PID.TID 0000.0001)   Seconds in section "FORWARD_STEP        [MAIN_DO_LOOP]":
(PID.TID 0000.0001)           User time:   43.470000000000013
(PID.TID 0000.0001)         System time:   1.0499999999999972
(PID.TID 0000.0001)     Wall clock time:   47.288487911224365
(PID.TID 0000.0001)          No. starts:           4
(PID.TID 0000.0001)           No. stops:           4
(PID.TID 0000.0001)   Seconds in section "DO_STATEVARS_DIAGS  [FORWARD_STEP]":
(PID.TID 0000.0001)           User time:  0.15999999999996817
(PID.TID 0000.0001)         System time:   0.0000000000000000
(PID.TID 0000.0001)     Wall clock time:  0.15995216369628906
(PID.TID 0000.0001)          No. starts:           8
(PID.TID 0000.0001)           No. stops:           8
(PID.TID 0000.0001)   Seconds in section "LOAD_FIELDS_DRIVER  [FORWARD_STEP]":
(PID.TID 0000.0001)           User time:  0.12000000000001876
(PID.TID 0000.0001)         System time:   0.0000000000000000
(PID.TID 0000.0001)     Wall clock time:  0.13882207870483398
(PID.TID 0000.0001)          No. starts:           4
(PID.TID 0000.0001)           No. stops:           4
(PID.TID 0000.0001)   Seconds in section "EXF_GETFORCING     [LOAD_FLDS_DRIVER]":
(PID.TID 0000.0001)           User time:   8.0000000000012506E-002
(PID.TID 0000.0001)         System time:   0.0000000000000000
(PID.TID 0000.0001)     Wall clock time:   9.8845243453979492E-002
(PID.TID 0000.0001)          No. starts:           4
(PID.TID 0000.0001)           No. stops:           4
(PID.TID 0000.0001)   Seconds in section "EXTERNAL_FLDS_LOAD [LOAD_FLDS_DRIVER]":
(PID.TID 0000.0001)           User time:   0.0000000000000000
(PID.TID 0000.0001)         System time:   0.0000000000000000
(PID.TID 0000.0001)     Wall clock time:   9.6368789672851562E-004
(PID.TID 0000.0001)          No. starts:           4
(PID.TID 0000.0001)           No. stops:           4
(PID.TID 0000.0001)   Seconds in section "OFFLINE_FLDS_LOAD  [LOAD_FLDS_DRIVER]":
(PID.TID 0000.0001)           User time:   4.0000000000006253E-002
(PID.TID 0000.0001)         System time:   0.0000000000000000
(PID.TID 0000.0001)     Wall clock time:   3.7976026535034180E-002
(PID.TID 0000.0001)          No. starts:           4
(PID.TID 0000.0001)           No. stops:           4
(PID.TID 0000.0001)   Seconds in section "DO_ATMOSPHERIC_PHYS [FORWARD_STEP]":
(PID.TID 0000.0001)           User time:   0.0000000000000000
(PID.TID 0000.0001)         System time:   0.0000000000000000
(PID.TID 0000.0001)     Wall clock time:   4.0769577026367188E-005
(PID.TID 0000.0001)          No. starts:           4
(PID.TID 0000.0001)           No. stops:           4
(PID.TID 0000.0001)   Seconds in section "DO_OCEANIC_PHYS     [FORWARD_STEP]":
(PID.TID 0000.0001)           User time:   3.9999999999992042E-002
(PID.TID 0000.0001)         System time:   0.0000000000000000
(PID.TID 0000.0001)     Wall clock time:   1.6037225723266602E-002
(PID.TID 0000.0001)          No. starts:           4
(PID.TID 0000.0001)           No. stops:           4
(PID.TID 0000.0001)   Seconds in section "GCHEM_CALC_TENDENCY [FORWARD_STEP]":
(PID.TID 0000.0001)           User time:   0.0000000000000000
(PID.TID 0000.0001)         System time:   0.0000000000000000
(PID.TID 0000.0001)     Wall clock time:   3.9100646972656250E-005
(PID.TID 0000.0001)          No. starts:           4
(PID.TID 0000.0001)           No. stops:           4
(PID.TID 0000.0001)   Seconds in section "THERMODYNAMICS      [FORWARD_STEP]":
(PID.TID 0000.0001)           User time:   21.169999999999987
(PID.TID 0000.0001)         System time:   2.0000000000010232E-002
(PID.TID 0000.0001)     Wall clock time:   21.288943767547607
(PID.TID 0000.0001)          No. starts:           4
(PID.TID 0000.0001)           No. stops:           4
(PID.TID 0000.0001)   Seconds in section "TRC_CORRECTION_STEP [FORWARD_STEP]":
(PID.TID 0000.0001)           User time:  0.17000000000000171
(PID.TID 0000.0001)         System time:   0.0000000000000000
(PID.TID 0000.0001)     Wall clock time:  0.17299795150756836
(PID.TID 0000.0001)          No. starts:           4
(PID.TID 0000.0001)           No. stops:           4
(PID.TID 0000.0001)   Seconds in section "GCHEM_FORCING_SEP  [FORWARD_STEP]":
(PID.TID 0000.0001)           User time:   12.670000000000002
(PID.TID 0000.0001)         System time:   9.9999999999909051E-003
(PID.TID 0000.0001)     Wall clock time:   12.713587999343872
(PID.TID 0000.0001)          No. starts:           4
(PID.TID 0000.0001)           No. stops:           4
(PID.TID 0000.0001)   Seconds in section "GCHEM_DIAGNOSTICS [GCHEM_FORCING_SEP]":
(PID.TID 0000.0001)           User time:   0.0000000000000000
(PID.TID 0000.0001)         System time:   0.0000000000000000
(PID.TID 0000.0001)     Wall clock time:   9.3626976013183594E-004
(PID.TID 0000.0001)          No. starts:           4
(PID.TID 0000.0001)           No. stops:           4
(PID.TID 0000.0001)   Seconds in section "GCHEM_OFFLINE [GCHEM_FORCING_SEP]":
(PID.TID 0000.0001)           User time:   0.0000000000000000
(PID.TID 0000.0001)         System time:   0.0000000000000000
(PID.TID 0000.0001)     Wall clock time:   2.3007392883300781E-004
(PID.TID 0000.0001)          No. starts:           4
(PID.TID 0000.0001)           No. stops:           4
(PID.TID 0000.0001)   Seconds in section "GUD_CONS [GCHEM_FORCING_SEP]":
(PID.TID 0000.0001)           User time:   8.7000000000000171
(PID.TID 0000.0001)         System time:   9.9999999999909051E-003
(PID.TID 0000.0001)     Wall clock time:   8.7325811386108398
(PID.TID 0000.0001)          No. starts:           8
(PID.TID 0000.0001)           No. stops:           8
(PID.TID 0000.0001)   Seconds in section "GCHEM_SURFMEAN [GCHEM_FORCING_SEP]":
(PID.TID 0000.0001)           User time:   0.0000000000000000
(PID.TID 0000.0001)         System time:   0.0000000000000000
(PID.TID 0000.0001)     Wall clock time:   5.1474571228027344E-004
(PID.TID 0000.0001)          No. starts:           4
(PID.TID 0000.0001)           No. stops:           4
(PID.TID 0000.0001)   Seconds in section "GUD_FORCING [GCHEM_FORCING_SEP]":
(PID.TID 0000.0001)           User time:   3.9699999999999847
(PID.TID 0000.0001)         System time:   0.0000000000000000
(PID.TID 0000.0001)     Wall clock time:   3.9790277481079102
(PID.TID 0000.0001)          No. starts:           4
(PID.TID 0000.0001)           No. stops:           4
(PID.TID 0000.0001)   Seconds in section "GUD_LIGHT [GUD_FORCING]":
(PID.TID 0000.0001)           User time:   3.0000000000001137E-002
(PID.TID 0000.0001)         System time:   0.0000000000000000
(PID.TID 0000.0001)     Wall clock time:   3.1530857086181641E-002
(PID.TID 0000.0001)          No. starts:           4
(PID.TID 0000.0001)           No. stops:           4
(PID.TID 0000.0001)   Seconds in section "GUD_SURFFORCING [GUD_FORCING]":
(PID.TID 0000.0001)           User time:  0.25000000000000000
(PID.TID 0000.0001)         System time:   0.0000000000000000
(PID.TID 0000.0001)     Wall clock time:  0.27102088928222656
(PID.TID 0000.0001)          No. starts:           4
(PID.TID 0000.0001)           No. stops:           4
(PID.TID 0000.0001)   Seconds in section "GUD_FE_CHEM [GUD_FORCING]":
(PID.TID 0000.0001)           User time:   3.9999999999992042E-002
(PID.TID 0000.0001)         System time:   0.0000000000000000
(PID.TID 0000.0001)     Wall clock time:   3.3586025238037109E-002
(PID.TID 0000.0001)          No. starts:           8
(PID.TID 0000.0001)           No. stops:           8
(PID.TID 0000.0001)   Seconds in section "GUD_FE_DUST [GUD_FORCING]":
(PID.TID 0000.0001)           User time:   0.0000000000000000
(PID.TID 0000.0001)         System time:   0.0000000000000000
(PID.TID 0000.0001)     Wall clock time:   1.9311904907226562E-004
(PID.TID 0000.0001)          No. starts:           4
(PID.TID 0000.0001)           No. stops:           4
(PID.TID 0000.0001)   Seconds in section "GUD_FE_SCAV [GUD_FORCING]":
(PID.TID 0000.0001)           User time:   0.0000000000000000
(PID.TID 0000.0001)         System time:   0.0000000000000000
(PID.TID 0000.0001)     Wall clock time:   1.7172098159790039E-002
(PID.TID 0000.0001)          No. starts:           4
(PID.TID 0000.0001)           No. stops:           4
(PID.TID 0000.0001)   Seconds in section "GUD_FE_SED [GUD_FORCING]":
(PID.TID 0000.0001)           User time:   0.0000000000000000
(PID.TID 0000.0001)         System time:   0.0000000000000000
(PID.TID 0000.0001)     Wall clock time:   1.7850399017333984E-003
(PID.TID 0000.0001)          No. starts:           4
(PID.TID 0000.0001)           No. stops:           4
(PID.TID 0000.0001)   Seconds in section "GUD_MODEL [GUD_FORCING]":
(PID.TID 0000.0001)           User time:   2.8000000000000114
(PID.TID 0000.0001)         System time:   0.0000000000000000
(PID.TID 0000.0001)     Wall clock time:   2.7897100448608398
(PID.TID 0000.0001)          No. starts:           4
(PID.TID 0000.0001)           No. stops:           4
(PID.TID 0000.0001)   Seconds in section "GUD_SINKING [GUD_FORCING]":
(PID.TID 0000.0001)           User time:  0.51999999999999602
(PID.TID 0000.0001)         System time:   0.0000000000000000
(PID.TID 0000.0001)     Wall clock time:  0.51870274543762207
(PID.TID 0000.0001)          No. starts:           4
(PID.TID 0000.0001)           No. stops:           4
(PID.TID 0000.0001)   Seconds in section "GUD_STEP [GUD_FORCING]":
(PID.TID 0000.0001)           User time:  0.20000000000000284
(PID.TID 0000.0001)         System time:   0.0000000000000000
(PID.TID 0000.0001)     Wall clock time:  0.20117902755737305
(PID.TID 0000.0001)          No. starts:           4
(PID.TID 0000.0001)           No. stops:           4
(PID.TID 0000.0001)   Seconds in section "DIAGS_FILL [GUD_FORCING]":
(PID.TID 0000.0001)           User time:   1.9999999999981810E-002
(PID.TID 0000.0001)         System time:   0.0000000000000000
(PID.TID 0000.0001)     Wall clock time:   1.6303062438964844E-002
(PID.TID 0000.0001)          No. starts:           4
(PID.TID 0000.0001)           No. stops:           4
(PID.TID 0000.0001)   Seconds in section "BLOCKING_EXCHANGES  [FORWARD_STEP]":
(PID.TID 0000.0001)           User time:  0.20000000000001705
(PID.TID 0000.0001)         System time:   0.0000000000000000
(PID.TID 0000.0001)     Wall clock time:  0.19748067855834961
(PID.TID 0000.0001)          No. starts:           4
(PID.TID 0000.0001)           No. stops:           4
(PID.TID 0000.0001)   Seconds in section "DO_STATEVARS_TAVE   [FORWARD_STEP]":
(PID.TID 0000.0001)           User time:  0.23999999999996646
(PID.TID 0000.0001)         System time:   1.0000000000005116E-002
(PID.TID 0000.0001)     Wall clock time:  0.25601983070373535
(PID.TID 0000.0001)          No. starts:           4
(PID.TID 0000.0001)           No. stops:           4
(PID.TID 0000.0001)   Seconds in section "MONITOR             [FORWARD_STEP]":
(PID.TID 0000.0001)           User time:  0.20000000000001705
(PID.TID 0000.0001)         System time:   0.0000000000000000
(PID.TID 0000.0001)     Wall clock time:  0.19410419464111328
(PID.TID 0000.0001)          No. starts:           4
(PID.TID 0000.0001)           No. stops:           4
(PID.TID 0000.0001)   Seconds in section "DO_THE_MODEL_IO     [FORWARD_STEP]":
(PID.TID 0000.0001)           User time:   1.5900000000000176
(PID.TID 0000.0001)         System time:   0.0000000000000000
(PID.TID 0000.0001)     Wall clock time:   1.5880718231201172
(PID.TID 0000.0001)          No. starts:           4
(PID.TID 0000.0001)           No. stops:           4
(PID.TID 0000.0001)   Seconds in section "PTRACERS_RESET      [FORWARD_STEP]":
(PID.TID 0000.0001)           User time:   0.0000000000000000
(PID.TID 0000.0001)         System time:   0.0000000000000000
(PID.TID 0000.0001)     Wall clock time:   4.6014785766601562E-005
(PID.TID 0000.0001)          No. starts:           4
(PID.TID 0000.0001)           No. stops:           4
(PID.TID 0000.0001)   Seconds in section "DO_WRITE_PICKUP     [FORWARD_STEP]":
(PID.TID 0000.0001)           User time:   6.9099999999999966
(PID.TID 0000.0001)         System time:   1.0099999999999909
(PID.TID 0000.0001)     Wall clock time:   10.561648130416870
(PID.TID 0000.0001)          No. starts:           4
(PID.TID 0000.0001)           No. stops:           4
(PID.TID 0000.0001) // ======================================================
(PID.TID 0000.0001) // Tile <-> Tile communication statistics
(PID.TID 0000.0001) // ======================================================
(PID.TID 0000.0001) // o Tile number: 000001
(PID.TID 0000.0001) //         No. X exchanges =              0
(PID.TID 0000.0001) //            Max. X spins =              0
(PID.TID 0000.0001) //            Min. X spins =     1000000000
(PID.TID 0000.0001) //          Total. X spins =              0
(PID.TID 0000.0001) //            Avg. X spins =       0.00E+00
(PID.TID 0000.0001) //         No. Y exchanges =              0
(PID.TID 0000.0001) //            Max. Y spins =              0
(PID.TID 0000.0001) //            Min. Y spins =     1000000000
(PID.TID 0000.0001) //          Total. Y spins =              0
(PID.TID 0000.0001) //            Avg. Y spins =       0.00E+00
(PID.TID 0000.0001) // o Thread number: 000001
(PID.TID 0000.0001) //            No. barriers =          16874
(PID.TID 0000.0001) //      Max. barrier spins =              1
(PID.TID 0000.0001) //      Min. barrier spins =              1
(PID.TID 0000.0001) //     Total barrier spins =          16874
(PID.TID 0000.0001) //      Avg. barrier spins =       1.00E+00
PROGRAM MAIN: Execution ended Normally
