(PID.TID 0000.0001) 
(PID.TID 0000.0001) // ======================================================
(PID.TID 0000.0001) //                      MITgcm UV
(PID.TID 0000.0001) //                      =========
(PID.TID 0000.0001) // ======================================================
(PID.TID 0000.0001) // execution environment starting up...
(PID.TID 0000.0001) 
(PID.TID 0000.0001) // Build user:        jahn
(PID.TID 0000.0001) // Build host:        node204
(PID.TID 0000.0001) // Build date:        Fri May  2 12:30:53 EDT 2014
(PID.TID 0000.0001) 
(PID.TID 0000.0001) // =======================================================
(PID.TID 0000.0001) // Execution Environment parameter file "eedata"
(PID.TID 0000.0001) // =======================================================
(PID.TID 0000.0001) ># Example "eedata" file
(PID.TID 0000.0001) ># Lines beginning "#" are comments
(PID.TID 0000.0001) ># nTx - No. threads per process in X
(PID.TID 0000.0001) ># nTy - No. threads per process in Y
(PID.TID 0000.0001) > &EEPARMS
(PID.TID 0000.0001) > nTx=1,nTy=1
(PID.TID 0000.0001) > /
(PID.TID 0000.0001) ># Note: Some systems use & as the
(PID.TID 0000.0001) ># namelist terminator. Other systems
(PID.TID 0000.0001) ># use a / character (as shown here).
(PID.TID 0000.0001) 
(PID.TID 0000.0001) // =======================================================
(PID.TID 0000.0001) // Computational Grid Specification ( see files "SIZE.h" )
(PID.TID 0000.0001) //                                  ( and "eedata"       )
(PID.TID 0000.0001) // =======================================================
(PID.TID 0000.0001)      nPx =    1 ; /* No. processes in X */
(PID.TID 0000.0001)      nPy =    1 ; /* No. processes in Y */
(PID.TID 0000.0001)      nSx =    1 ; /* No. tiles in X per process */
(PID.TID 0000.0001)      nSy =    1 ; /* No. tiles in Y per process */
(PID.TID 0000.0001)      sNx =    1 ; /* Tile size in X */
(PID.TID 0000.0001)      sNy =    1 ; /* Tile size in Y */
(PID.TID 0000.0001)      OLx =    2 ; /* Tile overlap distance in X */
(PID.TID 0000.0001)      OLy =    2 ; /* Tile overlap distance in Y */
(PID.TID 0000.0001)      nTx =    1 ; /* No. threads in X per process */
(PID.TID 0000.0001)      nTy =    1 ; /* No. threads in Y per process */
(PID.TID 0000.0001)       Nr =   35 ; /* No. levels in the vertical   */
(PID.TID 0000.0001)       Nx =    1 ; /* Total domain size in X ( = nPx*nSx*sNx ) */
(PID.TID 0000.0001)       Ny =    1 ; /* Total domain size in Y ( = nPy*nSy*sNy ) */
(PID.TID 0000.0001)   nTiles =    1 ; /* Total no. tiles per process ( = nSx*nSy ) */
(PID.TID 0000.0001)   nProcs =    1 ; /* Total no. processes ( = nPx*nPy ) */
(PID.TID 0000.0001) nThreads =    1 ; /* Total no. threads per process ( = nTx*nTy ) */
(PID.TID 0000.0001) usingMPI =    F ; /* Flag used to control whether MPI is in use */
(PID.TID 0000.0001)                   /*  note: To execute a program with MPI calls */
(PID.TID 0000.0001)                   /*  it must be launched appropriately e.g     */
(PID.TID 0000.0001)                   /*  "mpirun -np 64 ......"                    */
(PID.TID 0000.0001) useCoupler=    F ;/* Flag used to control communications with   */
(PID.TID 0000.0001)                   /*  other model components, through a coupler */
(PID.TID 0000.0001) debugMode =    F ; /* print debug msg. (sequence of S/R calls)  */
(PID.TID 0000.0001) printMapIncludesZeros=    F ; /* print zeros in Std.Output maps */
(PID.TID 0000.0001) maxLengthPrt1D=   65 /* maxLength of 1D array printed to StdOut */
(PID.TID 0000.0001) 
(PID.TID 0000.0001) // ======================================================
(PID.TID 0000.0001) // Mapping of tiles to threads
(PID.TID 0000.0001) // ======================================================
(PID.TID 0000.0001) // -o- Thread   1, tiles (   1:   1,   1:   1)
(PID.TID 0000.0001) 
(PID.TID 0000.0001) // ======================================================
(PID.TID 0000.0001) // Tile <-> Tile connectvity table
(PID.TID 0000.0001) // ======================================================
(PID.TID 0000.0001) // Tile number: 000001 (process no. = 000000)
(PID.TID 0000.0001) //        WEST: Tile = 000001, Process = 000000, Comm = put
(PID.TID 0000.0001) //                bi = 000001, bj = 000001
(PID.TID 0000.0001) //        EAST: Tile = 000001, Process = 000000, Comm = put
(PID.TID 0000.0001) //                bi = 000001, bj = 000001
(PID.TID 0000.0001) //       SOUTH: Tile = 000001, Process = 000000, Comm = put
(PID.TID 0000.0001) //                bi = 000001, bj = 000001
(PID.TID 0000.0001) //       NORTH: Tile = 000001, Process = 000000, Comm = put
(PID.TID 0000.0001) //                bi = 000001, bj = 000001
(PID.TID 0000.0001) 
(PID.TID 0000.0001)  INI_PARMS: opening model parameter file "data"
(PID.TID 0000.0001)  OPEN_COPY_DATA_FILE: opening file data
(PID.TID 0000.0001) // =======================================================
(PID.TID 0000.0001) // Parameter file "data"
(PID.TID 0000.0001) // =======================================================
(PID.TID 0000.0001) >#
(PID.TID 0000.0001) ># ******************************
(PID.TID 0000.0001) ># Model parameters
(PID.TID 0000.0001) ># Continuous equation parameters
(PID.TID 0000.0001) ># ******************************
(PID.TID 0000.0001) >&PARM01
(PID.TID 0000.0001) >tRef= 26.5, 26.1, 26., 25.5, 25.4, 24.9, 24.5, 24.0, 23.7,
(PID.TID 0000.0001) >      23.3, 23.1, 22.8, 22.5, 22.1, 21.6, 20.6, 19.5, 18.4,
(PID.TID 0000.0001) >      17.3, 16.6, 15.5, 14.6, 13.8, 13.1, 11.6, 10.1, 7.7,
(PID.TID 0000.0001) >      5.3, 4.1, 3.7, 3.7, 3.4, 3.0, 2.8, 2.6,
(PID.TID 0000.0001) >sRef= 35*35.00,
(PID.TID 0000.0001) >no_slip_sides=.false.,
(PID.TID 0000.0001) >no_slip_bottom=.TRUE.,
(PID.TID 0000.0001) >viscAz=0.e0,
(PID.TID 0000.0001) >viscAh=0.e0,
(PID.TID 0000.0001) >diffKhT=1.E2,
(PID.TID 0000.0001) >diffKzT=1.E-4,
(PID.TID 0000.0001) >diffKhS=0.D0,
(PID.TID 0000.0001) >diffKzS=0.D0,
(PID.TID 0000.0001) >beta=1.E-11,
(PID.TID 0000.0001) >tAlpha=2.E-4,
(PID.TID 0000.0001) >sBeta =7.4E-4,
(PID.TID 0000.0001) >gravity=9.81,
(PID.TID 0000.0001) >gBaro=9.81,
(PID.TID 0000.0001) >rigidLid=.TRUE.,
(PID.TID 0000.0001) >implicitFreeSurface=.false.,
(PID.TID 0000.0001) >eosType='JMD95Z',
(PID.TID 0000.0001) >saltStepping=.FALSE.,
(PID.TID 0000.0001) >tempStepping=.TRUE.,
(PID.TID 0000.0001) >tempAdvection=.TRUE.,
(PID.TID 0000.0001) >momStepping=.FALSE.,
(PID.TID 0000.0001) >implicitDiffusion=.true.,
(PID.TID 0000.0001) >implicitViscosity=.true.,
(PID.TID 0000.0001) >allowFreezing=.false.,
(PID.TID 0000.0001) >useSingleCpuIO=.TRUE.,
(PID.TID 0000.0001) >useCDscheme=.FALSE.,
(PID.TID 0000.0001) >tempAdvScheme = 3,
(PID.TID 0000.0001) >saltAdvScheme = 3,
(PID.TID 0000.0001) >writebinaryprec=64,
(PID.TID 0000.0001) >/
(PID.TID 0000.0001) >
(PID.TID 0000.0001) ># **************************
(PID.TID 0000.0001) ># Elliptic solver parameters
(PID.TID 0000.0001) ># **************************
(PID.TID 0000.0001) >&PARM02
(PID.TID 0000.0001) >cg2dMaxIters=300,
(PID.TID 0000.0001) >cg2dTargetResidual=1.E-7,
(PID.TID 0000.0001) >/
(PID.TID 0000.0001) >
(PID.TID 0000.0001) ># ************************
(PID.TID 0000.0001) ># Time stepping parameters
(PID.TID 0000.0001) ># ************************
(PID.TID 0000.0001) >&PARM03
(PID.TID 0000.0001) > nIter0=000000,
(PID.TID 0000.0001) ># nTimeSteps=86400,
(PID.TID 0000.0001) ># nTimeSteps=4,
(PID.TID 0000.0001) > endtime=43200.,
(PID.TID 0000.0001) > deltaTmom=10800.,
(PID.TID 0000.0001) > deltaTtracer=10800.,
(PID.TID 0000.0001) > deltaTClock =10800.,
(PID.TID 0000.0001) >#benw set to 0. to switch off cAdj (?)
(PID.TID 0000.0001) > cAdjFreq=0.,
(PID.TID 0000.0001) > abEps=0.1,
(PID.TID 0000.0001) > pChkptFreq  = 31104000.0,
(PID.TID 0000.0001) > chkptFreq   = 31104000.0,
(PID.TID 0000.0001) > monitorFreq = 1.,
(PID.TID 0000.0001) > dumpFreq = 10800.,
(PID.TID 0000.0001) > dumpInitAndLast = .TRUE.,
(PID.TID 0000.0001) > taveFreq    = 86400.,
(PID.TID 0000.0001) > tauThetaClimRelax=259200.,
(PID.TID 0000.0001) > tauSaltClimRelax=0.,
(PID.TID 0000.0001) > periodicExternalForcing=.TRUE.,
(PID.TID 0000.0001) > externForcingPeriod=2592000.,
(PID.TID 0000.0001) > externForcingCycle=31104000.,
(PID.TID 0000.0001) >/
(PID.TID 0000.0001) >
(PID.TID 0000.0001) ># *******************
(PID.TID 0000.0001) ># Gridding parameters
(PID.TID 0000.0001) ># *******************
(PID.TID 0000.0001) >&PARM04
(PID.TID 0000.0001) >usingCartesianGrid=.FALSE.,
(PID.TID 0000.0001) >usingSphericalPolarGrid=.TRUE.,
(PID.TID 0000.0001) >delX=1*1.E0,
(PID.TID 0000.0001) >delY=1*1.E0,
(PID.TID 0000.0001) >delZ=14*10, 5*15, 4*20, 2*50, 100, 2*150, 200, 300, 3*400, 2*500,
(PID.TID 0000.0001) >xgOrigin=335,
(PID.TID 0000.0001) >ygOrigin=-18.,
(PID.TID 0000.0001) >/
(PID.TID 0000.0001) >
(PID.TID 0000.0001) ># **********
(PID.TID 0000.0001) ># Data Files
(PID.TID 0000.0001) ># **********
(PID.TID 0000.0001) >&PARM05
(PID.TID 0000.0001) >bathyFile=       '../input/input/bathyneg.bin',
(PID.TID 0000.0001) >hydrogThetaFile= '../input/input/loc1_temp_janprof.bin',
(PID.TID 0000.0001) >hydrogSaltFile=  '../input/input/salt_uniform.bin',
(PID.TID 0000.0001) >zonalWindFile=   '../input/input/wind_u_mon.bin',
(PID.TID 0000.0001) >meridWindFile=   '../input/input/wind_v_mon.bin',
(PID.TID 0000.0001) >thetaClimFile=   '../input/input/loc1_temp_monsurf.bin',
(PID.TID 0000.0001) >saltClimFile=    '',
(PID.TID 0000.0001) >surfQFile=       '',
(PID.TID 0000.0001) >EmPmRFile=       '',
(PID.TID 0000.0001) >/
(PID.TID 0000.0001) 
(PID.TID 0000.0001)  INI_PARMS ; starts to read PARM01
(PID.TID 0000.0001)  INI_PARMS ; read PARM01 : OK
(PID.TID 0000.0001)  INI_PARMS ; starts to read PARM02
(PID.TID 0000.0001)  INI_PARMS ; read PARM02 : OK
(PID.TID 0000.0001)  INI_PARMS ; starts to read PARM03
(PID.TID 0000.0001)  INI_PARMS ; read PARM03 : OK
(PID.TID 0000.0001)  INI_PARMS ; starts to read PARM04
(PID.TID 0000.0001)  INI_PARMS ; read PARM04 : OK
(PID.TID 0000.0001)  INI_PARMS ; starts to read PARM05
(PID.TID 0000.0001)  INI_PARMS ; read PARM05 : OK
(PID.TID 0000.0001)  INI_PARMS: finished reading file "data"
(PID.TID 0000.0001)  PACKAGES_BOOT: opening data.pkg
(PID.TID 0000.0001)  OPEN_COPY_DATA_FILE: opening file data.pkg
(PID.TID 0000.0001) // =======================================================
(PID.TID 0000.0001) // Parameter file "data.pkg"
(PID.TID 0000.0001) // =======================================================
(PID.TID 0000.0001) ># Packages
(PID.TID 0000.0001) > &PACKAGES
(PID.TID 0000.0001) > usePTRACERS=.TRUE.
(PID.TID 0000.0001) > useGCHEM=.TRUE.,
(PID.TID 0000.0001) > useDiagnostics=.TRUE.,
(PID.TID 0000.0001) > useKPP=.TRUE.,
(PID.TID 0000.0001) > useMNC=.TRUE.,
(PID.TID 0000.0001) > useEXF=.TRUE.,
(PID.TID 0000.0001) > /
(PID.TID 0000.0001) 
(PID.TID 0000.0001)  PACKAGES_BOOT: finished reading data.pkg
(PID.TID 0000.0001)  MNC_READPARMS: opening file 'data.mnc'
(PID.TID 0000.0001)  OPEN_COPY_DATA_FILE: opening file data.mnc
(PID.TID 0000.0001) // =======================================================
(PID.TID 0000.0001) // Parameter file "data.mnc"
(PID.TID 0000.0001) // =======================================================
(PID.TID 0000.0001) ># Example "data.mnc" file
(PID.TID 0000.0001) ># Lines beginning "#" are comments
(PID.TID 0000.0001) > &MNC_01
(PID.TID 0000.0001) ># mnc_echo_gvtypes=.FALSE.,
(PID.TID 0000.0001) ># mnc_use_indir=.FALSE.,
(PID.TID 0000.0001) ># mnc_use_outdir=.TRUE.,
(PID.TID 0000.0001) > mnc_outdir_str='dar1d_',
(PID.TID 0000.0001) > mnc_outdir_date=.TRUE.,
(PID.TID 0000.0001) > monitor_mnc=.FALSE.,
(PID.TID 0000.0001) > snapshot_mnc=.TRUE.,
(PID.TID 0000.0001) > timeave_mnc=.TRUE.,
(PID.TID 0000.0001) > pickup_read_mnc=.FALSE.,
(PID.TID 0000.0001) > pickup_write_mnc=.FALSE.,
(PID.TID 0000.0001) > /
(PID.TID 0000.0001) ># Note: Some systems use & as the
(PID.TID 0000.0001) ># namelist terminator. Other systems
(PID.TID 0000.0001) ># use a / character.
(PID.TID 0000.0001) 
(PID.TID 0000.0001)  MNC_READPARMS: finished reading data.mnc
(PID.TID 0000.0001) CAL_READPARMS: opening data.cal
(PID.TID 0000.0001)  OPEN_COPY_DATA_FILE: opening file data.cal
(PID.TID 0000.0001) // =======================================================
(PID.TID 0000.0001) // Parameter file "data.cal"
(PID.TID 0000.0001) // =======================================================
(PID.TID 0000.0001) >#
(PID.TID 0000.0001) ># *******************
(PID.TID 0000.0001) ># Calendar Parameters
(PID.TID 0000.0001) ># *******************
(PID.TID 0000.0001) > &CAL_NML
(PID.TID 0000.0001) > TheCalendar='model',
(PID.TID 0000.0001) > startDate_1=19920101,
(PID.TID 0000.0001) > startDate_2=000000,
(PID.TID 0000.0001) > calendarDumps = .TRUE.
(PID.TID 0000.0001) > /
(PID.TID 0000.0001) 
(PID.TID 0000.0001) CAL_READPARMS: finished reading data.cal
(PID.TID 0000.0001) EXF_READPARMS: opening data.exf
(PID.TID 0000.0001)  OPEN_COPY_DATA_FILE: opening file data.exf
(PID.TID 0000.0001) // =======================================================
(PID.TID 0000.0001) // Parameter file "data.exf"
(PID.TID 0000.0001) // =======================================================
(PID.TID 0000.0001) ># *********************
(PID.TID 0000.0001) ># External Forcing Data
(PID.TID 0000.0001) ># *********************
(PID.TID 0000.0001) >#
(PID.TID 0000.0001) > &EXF_NML_01
(PID.TID 0000.0001) > exf_albedo        = 0.15,
(PID.TID 0000.0001) > exf_iprec         = 32,
(PID.TID 0000.0001) > exf_yftype        = 'RL',
(PID.TID 0000.0001) > useExfYearlyFields= .TRUE.,
(PID.TID 0000.0001) > twoDigitYear      = .TRUE.,
(PID.TID 0000.0001) > useExfCheckRange  = .FALSE.,
(PID.TID 0000.0001) > /
(PID.TID 0000.0001) >#
(PID.TID 0000.0001) > &EXF_NML_02
(PID.TID 0000.0001) > /
(PID.TID 0000.0001) >#
(PID.TID 0000.0001) > &EXF_NML_03
(PID.TID 0000.0001) > /
(PID.TID 0000.0001) >#
(PID.TID 0000.0001) > &EXF_NML_04
(PID.TID 0000.0001) > /
(PID.TID 0000.0001) >#
(PID.TID 0000.0001) > &EXF_NML_OBCS
(PID.TID 0000.0001) > /
(PID.TID 0000.0001) 
(PID.TID 0000.0001) EXF_READPARMS: reading EXF_NML_01
(PID.TID 0000.0001) EXF_READPARMS: reading EXF_NML_02
(PID.TID 0000.0001) EXF_READPARMS: reading EXF_NML_03
(PID.TID 0000.0001) EXF_READPARMS: finished reading data.exf
(PID.TID 0000.0001)  KPP_INIT: opening data.kpp
(PID.TID 0000.0001)  OPEN_COPY_DATA_FILE: opening file data.kpp
(PID.TID 0000.0001) // =======================================================
(PID.TID 0000.0001) // Parameter file "data.kpp"
(PID.TID 0000.0001) // =======================================================
(PID.TID 0000.0001) ># KPP parameters
(PID.TID 0000.0001) > &KPP_PARM01
(PID.TID 0000.0001) > KPPmixingMaps   = .FALSE.,
(PID.TID 0000.0001) > KPPwriteState   = .TRUE.,
(PID.TID 0000.0001) > kpp_dumpFreq    = 2592000.
(PID.TID 0000.0001) > kpp_tavefreq    = 2592000.
(PID.TID 0000.0001) > Ricr            = 0.3559
(PID.TID 0000.0001) > Riinfty         = 0.6998
(PID.TID 0000.0001) > /
(PID.TID 0000.0001) 
(PID.TID 0000.0001)  KPP_INIT: finished reading data.kpp
(PID.TID 0000.0001)  PTRACERS_READPARMS: opening data.ptracers
(PID.TID 0000.0001)  OPEN_COPY_DATA_FILE: opening file data.ptracers
(PID.TID 0000.0001) // =======================================================
(PID.TID 0000.0001) // Parameter file "data.ptracers"
(PID.TID 0000.0001) // =======================================================
(PID.TID 0000.0001) > &PTRACERS_PARM01
(PID.TID 0000.0001) > PTRACERS_numInUse=80,
(PID.TID 0000.0001) > PTRACERS_Iter0= 0,
(PID.TID 0000.0001) >#
(PID.TID 0000.0001) > PTRACERS_advScheme= 80*33,
(PID.TID 0000.0001) > PTRACERS_diffKh=    80*0.E3,
(PID.TID 0000.0001) > PTRACERS_diffKr=    80*1.E-5,
(PID.TID 0000.0001) > PTRACERS_useGMRedi= 80*.FALSE. ,
(PID.TID 0000.0001) >#
(PID.TID 0000.0001) >       PTRACERS_names(1)= 'DIC',
(PID.TID 0000.0001) >       PTRACERS_names(2)= 'NH4',
(PID.TID 0000.0001) >       PTRACERS_names(3)= 'NO2',
(PID.TID 0000.0001) >       PTRACERS_names(4)= 'NO3',
(PID.TID 0000.0001) >       PTRACERS_names(5)= 'PO4',
(PID.TID 0000.0001) >       PTRACERS_names(6)= 'SiO2',
(PID.TID 0000.0001) >       PTRACERS_names(7)= 'FeT',
(PID.TID 0000.0001) >       PTRACERS_names(8)= 'DOC',
(PID.TID 0000.0001) >       PTRACERS_names(9)= 'DON',
(PID.TID 0000.0001) >       PTRACERS_names(10)= 'DOP',
(PID.TID 0000.0001) >       PTRACERS_names(11)= 'DOFe',
(PID.TID 0000.0001) >       PTRACERS_names(12)= 'POC',
(PID.TID 0000.0001) >       PTRACERS_names(13)= 'PON',
(PID.TID 0000.0001) >       PTRACERS_names(14)= 'POP',
(PID.TID 0000.0001) >       PTRACERS_names(15)= 'POSi',
(PID.TID 0000.0001) >       PTRACERS_names(16)= 'POFe',
(PID.TID 0000.0001) >       PTRACERS_names(17)= 'PIC',
(PID.TID 0000.0001) >       PTRACERS_names(18)= 'c01',
(PID.TID 0000.0001) >       PTRACERS_names(19)= 'c02',
(PID.TID 0000.0001) >       PTRACERS_names(20)= 'c03',
(PID.TID 0000.0001) >       PTRACERS_names(21)= 'c04',
(PID.TID 0000.0001) >       PTRACERS_names(22)= 'c05',
(PID.TID 0000.0001) >       PTRACERS_names(23)= 'c06',
(PID.TID 0000.0001) >       PTRACERS_names(24)= 'c07',
(PID.TID 0000.0001) >       PTRACERS_names(25)= 'c08',
(PID.TID 0000.0001) >       PTRACERS_names(26)= 'c09',
(PID.TID 0000.0001) >       PTRACERS_names(27)= 'c10',
(PID.TID 0000.0001) >       PTRACERS_names(28)= 'c11',
(PID.TID 0000.0001) >       PTRACERS_names(29)= 'c12',
(PID.TID 0000.0001) >       PTRACERS_names(30)= 'c13',
(PID.TID 0000.0001) >       PTRACERS_names(31)= 'c14',
(PID.TID 0000.0001) >       PTRACERS_names(32)= 'c15',
(PID.TID 0000.0001) >       PTRACERS_names(33)= 'c16',
(PID.TID 0000.0001) >       PTRACERS_names(34)= 'n01',
(PID.TID 0000.0001) >       PTRACERS_names(35)= 'n02',
(PID.TID 0000.0001) >       PTRACERS_names(36)= 'n03',
(PID.TID 0000.0001) >       PTRACERS_names(37)= 'n04',
(PID.TID 0000.0001) >       PTRACERS_names(38)= 'n05',
(PID.TID 0000.0001) >       PTRACERS_names(39)= 'n06',
(PID.TID 0000.0001) >       PTRACERS_names(40)= 'n07',
(PID.TID 0000.0001) >       PTRACERS_names(41)= 'n08',
(PID.TID 0000.0001) >       PTRACERS_names(42)= 'n09',
(PID.TID 0000.0001) >       PTRACERS_names(43)= 'n10',
(PID.TID 0000.0001) >       PTRACERS_names(44)= 'n11',
(PID.TID 0000.0001) >       PTRACERS_names(45)= 'n12',
(PID.TID 0000.0001) >       PTRACERS_names(46)= 'n13',
(PID.TID 0000.0001) >       PTRACERS_names(47)= 'n14',
(PID.TID 0000.0001) >       PTRACERS_names(48)= 'n15',
(PID.TID 0000.0001) >       PTRACERS_names(49)= 'n16',
(PID.TID 0000.0001) >       PTRACERS_names(50)= 'fe01',
(PID.TID 0000.0001) >       PTRACERS_names(51)= 'fe02',
(PID.TID 0000.0001) >       PTRACERS_names(52)= 'fe03',
(PID.TID 0000.0001) >       PTRACERS_names(53)= 'fe04',
(PID.TID 0000.0001) >       PTRACERS_names(54)= 'fe05',
(PID.TID 0000.0001) >       PTRACERS_names(55)= 'fe06',
(PID.TID 0000.0001) >       PTRACERS_names(56)= 'fe07',
(PID.TID 0000.0001) >       PTRACERS_names(57)= 'fe08',
(PID.TID 0000.0001) >       PTRACERS_names(58)= 'fe09',
(PID.TID 0000.0001) >       PTRACERS_names(59)= 'fe10',
(PID.TID 0000.0001) >       PTRACERS_names(60)= 'fe11',
(PID.TID 0000.0001) >       PTRACERS_names(61)= 'fe12',
(PID.TID 0000.0001) >       PTRACERS_names(62)= 'fe13',
(PID.TID 0000.0001) >       PTRACERS_names(63)= 'fe14',
(PID.TID 0000.0001) >       PTRACERS_names(64)= 'fe15',
(PID.TID 0000.0001) >       PTRACERS_names(65)= 'fe16',
(PID.TID 0000.0001) >       PTRACERS_names(66)= 'Chl01',
(PID.TID 0000.0001) >       PTRACERS_names(67)= 'Chl02',
(PID.TID 0000.0001) >       PTRACERS_names(68)= 'Chl03',
(PID.TID 0000.0001) >       PTRACERS_names(69)= 'Chl04',
(PID.TID 0000.0001) >       PTRACERS_names(70)= 'Chl05',
(PID.TID 0000.0001) >       PTRACERS_names(71)= 'Chl06',
(PID.TID 0000.0001) >       PTRACERS_names(72)= 'Chl07',
(PID.TID 0000.0001) >       PTRACERS_names(73)= 'Chl08',
(PID.TID 0000.0001) >       PTRACERS_names(74)= 'Chl09',
(PID.TID 0000.0001) >       PTRACERS_names(75)= 'Chl10',
(PID.TID 0000.0001) >       PTRACERS_names(76)= 'Chl11',
(PID.TID 0000.0001) >       PTRACERS_names(77)= 'Chl12',
(PID.TID 0000.0001) >       PTRACERS_names(78)= 'Chl13',
(PID.TID 0000.0001) >       PTRACERS_names(79)= 'Chl14',
(PID.TID 0000.0001) >       PTRACERS_names(80)= 'Chl15',
(PID.TID 0000.0001) >#
(PID.TID 0000.0001) > PTRACERS_units(1)='mmol C/m^3'
(PID.TID 0000.0001) > PTRACERS_units(2)='mmol N/m^3'
(PID.TID 0000.0001) > PTRACERS_units(3)='mmol N/m^3'
(PID.TID 0000.0001) > PTRACERS_units(4)='mmol N/m^3'
(PID.TID 0000.0001) > PTRACERS_units(5)='mmol P/m^3'
(PID.TID 0000.0001) > PTRACERS_units(6)='mmol Si/m^3'
(PID.TID 0000.0001) > PTRACERS_units(7)='mmol Fe/m^3'
(PID.TID 0000.0001) > PTRACERS_units(8)='mmol C/m^3'
(PID.TID 0000.0001) > PTRACERS_units(9)='mmol N/m^3'
(PID.TID 0000.0001) > PTRACERS_units(10)='mmol P/m^3'
(PID.TID 0000.0001) > PTRACERS_units(11)='mmol Fe/m^3'
(PID.TID 0000.0001) > PTRACERS_units(12)='mmol C/m^3'
(PID.TID 0000.0001) > PTRACERS_units(13)='mmol N/m^3'
(PID.TID 0000.0001) > PTRACERS_units(14)='mmol P/m^3'
(PID.TID 0000.0001) > PTRACERS_units(15)='mmol Si/m^3'
(PID.TID 0000.0001) > PTRACERS_units(16)='mmol Fe/m^3'
(PID.TID 0000.0001) > PTRACERS_units(17)='mmol C/m^3'
(PID.TID 0000.0001) > PTRACERS_units(18:33)=16*'mmol C/m^3'
(PID.TID 0000.0001) > PTRACERS_units(34:49)=16*'mmol N/m^3'
(PID.TID 0000.0001) > PTRACERS_units(50:65)=16*'mmol Fe/m^3'
(PID.TID 0000.0001) > PTRACERS_units(66:80)=15*'mg Chl a/m^3'
(PID.TID 0000.0001) >#
(PID.TID 0000.0001) > PTRACERS_initialFile(1)='../input/input/loc1_DIC_annprof.bin',
(PID.TID 0000.0001) > PTRACERS_initialFile(2)='../input/input/loc1_NH4_run83_janprof.bin',
(PID.TID 0000.0001) > PTRACERS_initialFile(3)='../input/input/loc1_NO2_run83_janprof.bin',
(PID.TID 0000.0001) > PTRACERS_initialFile(4)='../input/input/loc1_nitr_janprof.bin',
(PID.TID 0000.0001) >#PTRACERS_initialFile(5)='../input/input/loc1_PO4_run83_janprof.bin',
(PID.TID 0000.0001) >#PTRACERS_initialFile(6)='../input/input/loc1_SiO2_run83_janprof.bin',
(PID.TID 0000.0001) > PTRACERS_initialFile(7)='../input/input/loc1_FeT_run83_janprof.bin',
(PID.TID 0000.0001) > PTRACERS_initialFile(8)='../input/input/loc1_DOC_janprof.bin',
(PID.TID 0000.0001) > PTRACERS_initialFile(9)='../input/input/loc1_DON_run83_janprof.bin',
(PID.TID 0000.0001) >#PTRACERS_initialFile(10)='../input/input/loc1_DOP_run83_janprof.bin',
(PID.TID 0000.0001) > PTRACERS_initialFile(11)='../input/input/loc1_DOFe_run83_janprof.bin',
(PID.TID 0000.0001) > PTRACERS_initialFile(12)='../input/input/loc1_POC_janprof.bin',
(PID.TID 0000.0001) > PTRACERS_initialFile(13)='../input/input/loc1_PON_run83_janprof.bin',
(PID.TID 0000.0001) >#PTRACERS_initialFile(14)='../input/input/loc1_POP_run83_janprof.bin',
(PID.TID 0000.0001) >#PTRACERS_initialFile(15)='../input/input/loc1_POSi_run83_janprof.bin',
(PID.TID 0000.0001) > PTRACERS_initialFile(16)='../input/input/loc1_POFe_run83_janprof.bin',
(PID.TID 0000.0001) >#PTRACERS_initialFile(17)='../input/input/loc1_PIC_run83_janprof.bin',
(PID.TID 0000.0001) ># PTRACERS_initialFile(18)='../input/input/loc1_C_biomass_janprof.bin',
(PID.TID 0000.0001) ># PTRACERS_initialFile(19)='../input/input/loc1_C_biomass_janprof.bin',
(PID.TID 0000.0001) ># PTRACERS_initialFile(20)='../input/input/loc1_C_biomass_janprof.bin',
(PID.TID 0000.0001) ># PTRACERS_initialFile(21)='../input/input/loc1_C_biomass_janprof.bin',
(PID.TID 0000.0001) ># PTRACERS_initialFile(22)='../input/input/loc1_C_biomass_janprof.bin',
(PID.TID 0000.0001) ># PTRACERS_initialFile(23)='../input/input/loc1_C_biomass_janprof.bin',
(PID.TID 0000.0001) ># PTRACERS_initialFile(24)='../input/input/loc1_C_biomass_janprof.bin',
(PID.TID 0000.0001) ># PTRACERS_initialFile(25)='../input/input/loc1_C_biomass_janprof.bin',
(PID.TID 0000.0001) ># PTRACERS_initialFile(26)='../input/input/loc1_C_biomass_janprof.bin',
(PID.TID 0000.0001) ># PTRACERS_initialFile(27)='../input/input/loc1_C_biomass_janprof.bin',
(PID.TID 0000.0001) ># PTRACERS_initialFile(28)='../input/input/loc1_C_biomass_janprof.bin',
(PID.TID 0000.0001) ># PTRACERS_initialFile(29)='../input/input/loc1_C_biomass_janprof.bin',
(PID.TID 0000.0001) ># PTRACERS_initialFile(30)='../input/input/loc1_C_biomass_janprof.bin',
(PID.TID 0000.0001) ># PTRACERS_initialFile(31)='../input/input/loc1_C_biomass_janprof.bin',
(PID.TID 0000.0001) ># PTRACERS_initialFile(32)='../input/input/loc1_C_biomass_janprof.bin',
(PID.TID 0000.0001) ># PTRACERS_initialFile(33)='../input/input/loc1_C_biomass_janprof.bin',
(PID.TID 0000.0001) ># PTRACERS_initialFile(34)='../input/input/loc1_N_biomass_janprof.bin',
(PID.TID 0000.0001) ># PTRACERS_initialFile(35)='../input/input/loc1_N_biomass_janprof.bin',
(PID.TID 0000.0001) ># PTRACERS_initialFile(36)='../input/input/loc1_N_biomass_janprof.bin',
(PID.TID 0000.0001) ># PTRACERS_initialFile(37)='../input/input/loc1_N_biomass_janprof.bin',
(PID.TID 0000.0001) ># PTRACERS_initialFile(38)='../input/input/loc1_N_biomass_janprof.bin',
(PID.TID 0000.0001) ># PTRACERS_initialFile(39)='../input/input/loc1_N_biomass_janprof.bin',
(PID.TID 0000.0001) ># PTRACERS_initialFile(40)='../input/input/loc1_N_biomass_janprof.bin',
(PID.TID 0000.0001) ># PTRACERS_initialFile(41)='../input/input/loc1_N_biomass_janprof.bin',
(PID.TID 0000.0001) ># PTRACERS_initialFile(42)='../input/input/loc1_N_biomass_janprof.bin',
(PID.TID 0000.0001) ># PTRACERS_initialFile(43)='../input/input/loc1_N_biomass_janprof.bin',
(PID.TID 0000.0001) ># PTRACERS_initialFile(44)='../input/input/loc1_N_biomass_janprof.bin',
(PID.TID 0000.0001) ># PTRACERS_initialFile(45)='../input/input/loc1_N_biomass_janprof.bin',
(PID.TID 0000.0001) ># PTRACERS_initialFile(46)='../input/input/loc1_N_biomass_janprof.bin',
(PID.TID 0000.0001) ># PTRACERS_initialFile(47)='../input/input/loc1_N_biomass_janprof.bin',
(PID.TID 0000.0001) ># PTRACERS_initialFile(48)='../input/input/loc1_N_biomass_janprof.bin',
(PID.TID 0000.0001) ># PTRACERS_initialFile(49)='../input/input/loc1_N_biomass_janprof.bin',
(PID.TID 0000.0001) ># PTRACERS_initialFile(50)='../input/input/loc1_Fe_biomass_janprof.bin',
(PID.TID 0000.0001) ># PTRACERS_initialFile(51)='../input/input/loc1_Fe_biomass_janprof.bin',
(PID.TID 0000.0001) ># PTRACERS_initialFile(52)='../input/input/loc1_Fe_biomass_janprof.bin',
(PID.TID 0000.0001) ># PTRACERS_initialFile(53)='../input/input/loc1_Fe_biomass_janprof.bin',
(PID.TID 0000.0001) ># PTRACERS_initialFile(54)='../input/input/loc1_Fe_biomass_janprof.bin',
(PID.TID 0000.0001) ># PTRACERS_initialFile(55)='../input/input/loc1_Fe_biomass_janprof.bin',
(PID.TID 0000.0001) ># PTRACERS_initialFile(56)='../input/input/loc1_Fe_biomass_janprof.bin',
(PID.TID 0000.0001) ># PTRACERS_initialFile(57)='../input/input/loc1_Fe_biomass_janprof.bin',
(PID.TID 0000.0001) ># PTRACERS_initialFile(58)='../input/input/loc1_Fe_biomass_janprof.bin',
(PID.TID 0000.0001) ># PTRACERS_initialFile(59)='../input/input/loc1_Fe_biomass_janprof.bin',
(PID.TID 0000.0001) ># PTRACERS_initialFile(60)='../input/input/loc1_Fe_biomass_janprof.bin',
(PID.TID 0000.0001) ># PTRACERS_initialFile(61)='../input/input/loc1_Fe_biomass_janprof.bin',
(PID.TID 0000.0001) ># PTRACERS_initialFile(62)='../input/input/loc1_Fe_biomass_janprof.bin',
(PID.TID 0000.0001) ># PTRACERS_initialFile(63)='../input/input/loc1_Fe_biomass_janprof.bin',
(PID.TID 0000.0001) ># PTRACERS_initialFile(64)='../input/input/loc1_Fe_biomass_janprof.bin',
(PID.TID 0000.0001) ># PTRACERS_initialFile(65)='../input/input/loc1_Fe_biomass_janprof.bin',
(PID.TID 0000.0001) ># PTRACERS_initialFile(66)='../input/input/loc1_chlorophyll_janprof.bin',
(PID.TID 0000.0001) ># PTRACERS_initialFile(67)='../input/input/loc1_chlorophyll_janprof.bin',
(PID.TID 0000.0001) ># PTRACERS_initialFile(68)='../input/input/loc1_chlorophyll_janprof.bin',
(PID.TID 0000.0001) ># PTRACERS_initialFile(69)='../input/input/loc1_chlorophyll_janprof.bin',
(PID.TID 0000.0001) ># PTRACERS_initialFile(70)='../input/input/loc1_chlorophyll_janprof.bin',
(PID.TID 0000.0001) ># PTRACERS_initialFile(71)='../input/input/loc1_chlorophyll_janprof.bin',
(PID.TID 0000.0001) ># PTRACERS_initialFile(72)='../input/input/loc1_chlorophyll_janprof.bin',
(PID.TID 0000.0001) ># PTRACERS_initialFile(73)='../input/input/loc1_chlorophyll_janprof.bin',
(PID.TID 0000.0001) ># PTRACERS_initialFile(74)='../input/input/loc1_chlorophyll_janprof.bin',
(PID.TID 0000.0001) ># PTRACERS_initialFile(75)='../input/input/loc1_chlorophyll_janprof.bin',
(PID.TID 0000.0001) ># PTRACERS_initialFile(76)='../input/input/loc1_chlorophyll_janprof.bin',
(PID.TID 0000.0001) ># PTRACERS_initialFile(77)='../input/input/loc1_chlorophyll_janprof.bin',
(PID.TID 0000.0001) ># PTRACERS_initialFile(78)='../input/input/loc1_chlorophyll_janprof.bin',
(PID.TID 0000.0001) ># PTRACERS_initialFile(79)='../input/input/loc1_chlorophyll_janprof.bin',
(PID.TID 0000.0001) ># PTRACERS_initialFile(80)='../input/input/loc1_chlorophyll_janprof.bin',
(PID.TID 0000.0001) > PTRACERS_ref(1:5,18:33)= 80*1.0,
(PID.TID 0000.0001) > PTRACERS_ref(1:5,34:49)= 80*0.133333,
(PID.TID 0000.0001) > PTRACERS_ref(1:5,50:65)= 80*0.00001,
(PID.TID 0000.0001) > PTRACERS_ref(1:5,66:80)= 75*0.15,
(PID.TID 0000.0001) > /
(PID.TID 0000.0001) 
(PID.TID 0000.0001)  PTRACERS_READPARMS: finished reading data.ptracers
(PID.TID 0000.0001)  GCHEM_READPARMS: opening data.gchem
(PID.TID 0000.0001)  OPEN_COPY_DATA_FILE: opening file data.gchem
(PID.TID 0000.0001) // =======================================================
(PID.TID 0000.0001) // Parameter file "data.gchem"
(PID.TID 0000.0001) // =======================================================
(PID.TID 0000.0001) > &GCHEM_PARM01
(PID.TID 0000.0001) >  useDARWIN=.TRUE.,
(PID.TID 0000.0001) >  nsubtime=3,
(PID.TID 0000.0001) > /
(PID.TID 0000.0001) 
(PID.TID 0000.0001)  GCHEM_READPARMS: finished reading data.gchem
(PID.TID 0000.0001)  DARWIN_READPARMS: opening data.darwin
(PID.TID 0000.0001)  OPEN_COPY_DATA_FILE: opening file data.darwin
(PID.TID 0000.0001) // =======================================================
(PID.TID 0000.0001) // Parameter file "data.darwin"
(PID.TID 0000.0001) // =======================================================
(PID.TID 0000.0001) > &DARWIN_FORCING_PARAMS
(PID.TID 0000.0001) > /
(PID.TID 0000.0001) > &DARWIN_EXF_PARAMS
(PID.TID 0000.0001) > ironFile='../input/input/loc1_FeFlux_monsurf.bin',
(PID.TID 0000.0001) > PARFile='../input/input/loc1_PAR_monsurf.bin',
(PID.TID 0000.0001) > ironPeriod= -12.,
(PID.TID 0000.0001) > PARPeriod= -12.,
(PID.TID 0000.0001) > darwin_inscal_iron= 1000.,
(PID.TID 0000.0001) > darwin_inscal_PAR= 11.574074074074,
(PID.TID 0000.0001) >#darwin_PO4_fluxFile= '../input/input/ann_nphos_flux.bin',
(PID.TID 0000.0001) >#darwin_NO3_fluxFile= '../input/input/ann_nnitr_flux.bin',
(PID.TID 0000.0001) >#darwin_Si_fluxFile= '../input/input/ann_nsil_flux.bin',
(PID.TID 0000.0001) > /
(PID.TID 0000.0001) > &DARWIN_PARAMS
(PID.TID 0000.0001) > darwin_seed= 11231,
(PID.TID 0000.0001) > darwin_allometric= .TRUE.,
(PID.TID 0000.0001) > KDOC=  2.3148148148148148e-07,  ! .02/day
(PID.TID 0000.0001) > KDON=  2.3148148148148148e-07,
(PID.TID 0000.0001) > KDOP=  2.3148148148148148e-07,
(PID.TID 0000.0001) > KDOFe= 2.3148148148148148e-07,
(PID.TID 0000.0001) > KPOC=  4.6296296296296297e-07,  ! .04/day
(PID.TID 0000.0001) > KPON=  4.6296296296296297e-07,
(PID.TID 0000.0001) > KPOP=  4.6296296296296297e-07,
(PID.TID 0000.0001) > KPOFe= 4.6296296296296297e-07,
(PID.TID 0000.0001) > KPOSi= 3.819444444444444e-08,   ! .0033/day,
(PID.TID 0000.0001) > alpfe= .05D0,
(PID.TID 0000.0001) > scav= 5.092592592592593e-08  ! 4.4D-3/day,
(PID.TID 0000.0001) > freefemax= .1D-3
(PID.TID 0000.0001) > katten_chl= .03D0,
(PID.TID 0000.0001) > PARmin= 0.1D0,
(PID.TID 0000.0001) > PAR_oxi = 0.0,
(PID.TID 0000.0001) > phygrazmin= 0.,
(PID.TID 0000.0001) >#knita=0.,
(PID.TID 0000.0001) > synthcost= 2.33D0,
(PID.TID 0000.0001) > phymin= 0.,
(PID.TID 0000.0001) > /
(PID.TID 0000.0001) > &DARWIN_RADTRANS_PARAMS
(PID.TID 0000.0001) > /
(PID.TID 0000.0001) > &DARWIN_TRAIT_PARAMS
(PID.TID 0000.0001) > tempmax = 20.0,
(PID.TID 0000.0001) > temprange = 22.0,
(PID.TID 0000.0001) > val_R_PC=0.,
(PID.TID 0000.0001) > val_R_PC_ZOO=0.,
(PID.TID 0000.0001) > /
(PID.TID 0000.0001) > &DARWIN_ALLOMETRIC_PARAMS
(PID.TID 0000.0001) > /
(PID.TID 0000.0001) 
(PID.TID 0000.0001)  ===================================
(PID.TID 0000.0001)  DIAGNOSTICS_READPARMS: opening data.diagnostics
(PID.TID 0000.0001)  OPEN_COPY_DATA_FILE: opening file data.diagnostics
(PID.TID 0000.0001) // =======================================================
(PID.TID 0000.0001) // Parameter file "data.diagnostics"
(PID.TID 0000.0001) // =======================================================
(PID.TID 0000.0001) > &diagnostics_list
(PID.TID 0000.0001) > filename(1)= 'darwin',
(PID.TID 0000.0001) > frequency(1)= 10800.,
(PID.TID 0000.0001) > fields(1,1)= 'TRAC01  ',
(PID.TID 0000.0001) > fields(2,1)= 'TRAC02  ',
(PID.TID 0000.0001) > fields(3,1)= 'TRAC03  ',
(PID.TID 0000.0001) > fields(4,1)= 'TRAC04  ',
(PID.TID 0000.0001) > fields(5,1)= 'TRAC05  ',
(PID.TID 0000.0001) > fields(6,1)= 'TRAC06  ',
(PID.TID 0000.0001) > fields(7,1)= 'TRAC07  ',
(PID.TID 0000.0001) > fields(8,1)= 'TRAC08  ',
(PID.TID 0000.0001) > fields(9,1)= 'TRAC09  ',
(PID.TID 0000.0001) > fields(10,1)= 'TRAC10  ',
(PID.TID 0000.0001) > fields(11,1)= 'TRAC11  ',
(PID.TID 0000.0001) > fields(12,1)= 'TRAC12  ',
(PID.TID 0000.0001) > fields(13,1)= 'TRAC13  ',
(PID.TID 0000.0001) > fields(14,1)= 'TRAC14  ',
(PID.TID 0000.0001) > fields(15,1)= 'TRAC15  ',
(PID.TID 0000.0001) > fields(16,1)= 'TRAC16  ',
(PID.TID 0000.0001) > fields(17,1)= 'TRAC17  ',
(PID.TID 0000.0001) > fields(18,1)= 'TRAC18  ',
(PID.TID 0000.0001) > fields(19,1)= 'TRAC19  ',
(PID.TID 0000.0001) > fields(20,1)= 'TRAC20  ',
(PID.TID 0000.0001) > fields(21,1)= 'TRAC21  ',
(PID.TID 0000.0001) > fields(22,1)= 'TRAC22  ',
(PID.TID 0000.0001) > fields(23,1)= 'TRAC23  ',
(PID.TID 0000.0001) > fields(24,1)= 'TRAC24  ',
(PID.TID 0000.0001) > fields(25,1)= 'TRAC25  ',
(PID.TID 0000.0001) > fields(26,1)= 'TRAC26  ',
(PID.TID 0000.0001) > fields(27,1)= 'TRAC27  ',
(PID.TID 0000.0001) > fields(28,1)= 'TRAC28  ',
(PID.TID 0000.0001) > fields(29,1)= 'TRAC29  ',
(PID.TID 0000.0001) > fields(30,1)= 'TRAC30  ',
(PID.TID 0000.0001) > fields(31,1)= 'TRAC31  ',
(PID.TID 0000.0001) > fields(32,1)= 'TRAC32  ',
(PID.TID 0000.0001) > fields(33,1)= 'TRAC33  ',
(PID.TID 0000.0001) > fields(34,1)= 'TRAC34  ',
(PID.TID 0000.0001) > fields(35,1)= 'TRAC35  ',
(PID.TID 0000.0001) > fields(36,1)= 'TRAC36  ',
(PID.TID 0000.0001) > fields(37,1)= 'TRAC37  ',
(PID.TID 0000.0001) > fields(38,1)= 'TRAC38  ',
(PID.TID 0000.0001) > fields(39,1)= 'TRAC39  ',
(PID.TID 0000.0001) > fields(40,1)= 'TRAC40  ',
(PID.TID 0000.0001) > fields(41,1)= 'TRAC41  ',
(PID.TID 0000.0001) > fields(42,1)= 'TRAC42  ',
(PID.TID 0000.0001) > fields(43,1)= 'TRAC43  ',
(PID.TID 0000.0001) > fields(44,1)= 'TRAC44  ',
(PID.TID 0000.0001) > fields(45,1)= 'TRAC45  ',
(PID.TID 0000.0001) > fields(46,1)= 'TRAC46  ',
(PID.TID 0000.0001) > fields(47,1)= 'TRAC47  ',
(PID.TID 0000.0001) > fields(48,1)= 'TRAC48  ',
(PID.TID 0000.0001) > fields(49,1)= 'TRAC49  ',
(PID.TID 0000.0001) > fields(50,1)= 'TRAC50  ',
(PID.TID 0000.0001) > fields(51,1)= 'TRAC51  ',
(PID.TID 0000.0001) > fields(52,1)= 'TRAC52  ',
(PID.TID 0000.0001) > fields(53,1)= 'TRAC53  ',
(PID.TID 0000.0001) > fields(54,1)= 'TRAC54  ',
(PID.TID 0000.0001) > fields(55,1)= 'TRAC55  ',
(PID.TID 0000.0001) > fields(56,1)= 'TRAC56  ',
(PID.TID 0000.0001) > fields(57,1)= 'TRAC57  ',
(PID.TID 0000.0001) > fields(58,1)= 'TRAC58  ',
(PID.TID 0000.0001) > fields(59,1)= 'TRAC59  ',
(PID.TID 0000.0001) > fields(60,1)= 'TRAC60  ',
(PID.TID 0000.0001) > fields(61,1)= 'TRAC61  ',
(PID.TID 0000.0001) > fields(62,1)= 'TRAC62  ',
(PID.TID 0000.0001) > fields(63,1)= 'TRAC63  ',
(PID.TID 0000.0001) > fields(64,1)= 'TRAC64  ',
(PID.TID 0000.0001) > fields(65,1)= 'TRAC65  ',
(PID.TID 0000.0001) > fields(66,1)= 'TRAC66  ',
(PID.TID 0000.0001) > fields(67,1)= 'TRAC67  ',
(PID.TID 0000.0001) > fields(68,1)= 'TRAC68  ',
(PID.TID 0000.0001) > fields(69,1)= 'TRAC69  ',
(PID.TID 0000.0001) > fields(70,1)= 'TRAC70  ',
(PID.TID 0000.0001) > fields(71,1)= 'TRAC71  ',
(PID.TID 0000.0001) > fields(72,1)= 'TRAC72  ',
(PID.TID 0000.0001) > fields(73,1)= 'TRAC73  ',
(PID.TID 0000.0001) > fields(74,1)= 'TRAC74  ',
(PID.TID 0000.0001) > fields(75,1)= 'TRAC75  ',
(PID.TID 0000.0001) > fields(76,1)= 'TRAC76  ',
(PID.TID 0000.0001) > fields(77,1)= 'TRAC77  ',
(PID.TID 0000.0001) > fields(78,1)= 'TRAC78  ',
(PID.TID 0000.0001) > fields(79,1)= 'TRAC79  ',
(PID.TID 0000.0001) > fields(80,1)= 'TRAC80  ',
(PID.TID 0000.0001) > fields(81,1)= 'PAR01   ',
(PID.TID 0000.0001) > fields(82,1)= 'DIC_c01 ',
(PID.TID 0000.0001) > fields(83,1)= 'DIC_c02 ',
(PID.TID 0000.0001) > fields(84,1)= 'c01_DOC ',
(PID.TID 0000.0001) > fields(85,1)= 'c02_DOC ',
(PID.TID 0000.0001) > fields(86,1)= 'c01_POC ',
(PID.TID 0000.0001) > fields(87,1)= 'c02_POC ',
(PID.TID 0000.0001) > fields(88,1)= 'PARF    ',
(PID.TID 0000.0001) > fields(89,1)= 'atten   ',
(PID.TID 0000.0001) > fields(90,1)= 'surfPAR ',
(PID.TID 0000.0001) > fields(91,1)= 'exfPAR  ',
(PID.TID 0000.0001) > fields(92,1)= 'limn01  ',
(PID.TID 0000.0001) > fields(93,1)= 'limp01  ',
(PID.TID 0000.0001) > fields(94,1)= 'limsi01 ',
(PID.TID 0000.0001) > fields(95,1)= 'limfe01 ',
(PID.TID 0000.0001) > fields(96,1)= 'limI01  ',
(PID.TID 0000.0001) > fields(97,1)= 'limT01  ',
(PID.TID 0000.0001) > fields(98,1)= 'c01_c   ',
(PID.TID 0000.0001) > fields(99,1)= 'c02_c   ',
(PID.TID 0000.0001) > fields(100,1)= 'c_c03   ',
(PID.TID 0000.0001) > fields(101,1)= 'c_c04   ',
(PID.TID 0000.0001) > fields(102,1)= 'c_DOC   ',
(PID.TID 0000.0001) > fields(103,1)= 'c_POC   ',
(PID.TID 0000.0001) > fields(104,1)= 'c_PIC   ',
(PID.TID 0000.0001) > fields(105,1)= 'n_DON   ',
(PID.TID 0000.0001) > fields(106,1)= 'n_PON   ',
(PID.TID 0000.0001) > fields(107,1)= 'p_DOP   ',
(PID.TID 0000.0001) > fields(108,1)= 'p_POP   ',
(PID.TID 0000.0001) > /
(PID.TID 0000.0001) > &diag_statis_parms
(PID.TID 0000.0001) > /
(PID.TID 0000.0001) 
(PID.TID 0000.0001) S/R DIAGNOSTICS_READPARMS, read namelist "diagnostics_list": start
(PID.TID 0000.0001) S/R DIAGNOSTICS_READPARMS, read namelist "diagnostics_list": OK
(PID.TID 0000.0001) S/R DIAGNOSTICS_READPARMS, read namelist "DIAG_STATIS_PARMS": start
(PID.TID 0000.0001) S/R DIAGNOSTICS_READPARMS, read namelist "DIAG_STATIS_PARMS": OK
(PID.TID 0000.0001)  DIAGNOSTICS_READPARMS: global parameter summary:
(PID.TID 0000.0001)  dumpAtLast = /* always write time-ave diags at the end */
(PID.TID 0000.0001)                   F
(PID.TID 0000.0001)     ;
(PID.TID 0000.0001)  diag_mnc =   /* write NetCDF output files */
(PID.TID 0000.0001)                   T
(PID.TID 0000.0001)     ;
(PID.TID 0000.0001)  useMissingValue = /* put MissingValue where mask = 0 */
(PID.TID 0000.0001)                   F
(PID.TID 0000.0001)     ;
(PID.TID 0000.0001)  diagCG_maxIters = /* max number of iters in diag_cg2d */
(PID.TID 0000.0001)                     300
(PID.TID 0000.0001)     ;
(PID.TID 0000.0001)  diagCG_resTarget = /* residual target for diag_cg2d */
(PID.TID 0000.0001)                 1.000000000000000E-07
(PID.TID 0000.0001)     ;
(PID.TID 0000.0001) -----------------------------------------------------
(PID.TID 0000.0001)  DIAGNOSTICS_READPARMS: active diagnostics summary:
(PID.TID 0000.0001) -----------------------------------------------------
(PID.TID 0000.0001) Creating Output Stream: darwin
(PID.TID 0000.0001) Output Frequency:      10800.000000 ; Phase:           0.000000
(PID.TID 0000.0001)  Averaging Freq.:      10800.000000 , Phase:           0.000000 , Cycle:   1
(PID.TID 0000.0001)  missing value:  1.234567000000E+05 ; for integers:   123456789
(PID.TID 0000.0001)  Levels:    will be set later
(PID.TID 0000.0001)  Fields:    TRAC01   TRAC02   TRAC03   TRAC04   TRAC05   TRAC06   TRAC07   TRAC08   TRAC09   TRAC10
(PID.TID 0000.0001)  Fields:    TRAC11   TRAC12   TRAC13   TRAC14   TRAC15   TRAC16   TRAC17   TRAC18   TRAC19   TRAC20
(PID.TID 0000.0001)  Fields:    TRAC21   TRAC22   TRAC23   TRAC24   TRAC25   TRAC26   TRAC27   TRAC28   TRAC29   TRAC30
(PID.TID 0000.0001)  Fields:    TRAC31   TRAC32   TRAC33   TRAC34   TRAC35   TRAC36   TRAC37   TRAC38   TRAC39   TRAC40
(PID.TID 0000.0001)  Fields:    TRAC41   TRAC42   TRAC43   TRAC44   TRAC45   TRAC46   TRAC47   TRAC48   TRAC49   TRAC50
(PID.TID 0000.0001)  Fields:    TRAC51   TRAC52   TRAC53   TRAC54   TRAC55   TRAC56   TRAC57   TRAC58   TRAC59   TRAC60
(PID.TID 0000.0001)  Fields:    TRAC61   TRAC62   TRAC63   TRAC64   TRAC65   TRAC66   TRAC67   TRAC68   TRAC69   TRAC70
(PID.TID 0000.0001)  Fields:    TRAC71   TRAC72   TRAC73   TRAC74   TRAC75   TRAC76   TRAC77   TRAC78   TRAC79   TRAC80
(PID.TID 0000.0001)  Fields:    PAR01    DIC_c01  DIC_c02  c01_DOC  c02_DOC  c01_POC  c02_POC  PARF     atten    surfPAR
(PID.TID 0000.0001)  Fields:    exfPAR   limn01   limp01   limsi01  limfe01  limI01   limT01   c01_c    c02_c    c_c03
(PID.TID 0000.0001)  Fields:    c_c04    c_DOC    c_POC    c_PIC    n_DON    n_PON    p_DOP    p_POP
(PID.TID 0000.0001) -----------------------------------------------------
(PID.TID 0000.0001)  DIAGNOSTICS_READPARMS: statistics diags. summary:
(PID.TID 0000.0001) -----------------------------------------------------
(PID.TID 0000.0001) 
(PID.TID 0000.0001) SET_PARMS: done
(PID.TID 0000.0001) Enter INI_VERTICAL_GRID: setInterFDr=    T ; setCenterDr=    F
(PID.TID 0000.0001) %MON XC_max                       =   3.3550000000000000E+02
(PID.TID 0000.0001) %MON XC_min                       =   3.3550000000000000E+02
(PID.TID 0000.0001) %MON XC_mean                      =   3.3550000000000000E+02
(PID.TID 0000.0001) %MON XC_sd                        =   0.0000000000000000E+00
(PID.TID 0000.0001) %MON XG_max                       =   3.3500000000000000E+02
(PID.TID 0000.0001) %MON XG_min                       =   3.3500000000000000E+02
(PID.TID 0000.0001) %MON XG_mean                      =   3.3500000000000000E+02
(PID.TID 0000.0001) %MON XG_sd                        =   0.0000000000000000E+00
(PID.TID 0000.0001) %MON DXC_max                      =   1.0603184087719869E+05
(PID.TID 0000.0001) %MON DXC_min                      =   1.0603184087719869E+05
(PID.TID 0000.0001) %MON DXC_mean                     =   1.0603184087719869E+05
(PID.TID 0000.0001) %MON DXC_sd                       =   0.0000000000000000E+00
(PID.TID 0000.0001) %MON DXF_max                      =   1.0603184087719869E+05
(PID.TID 0000.0001) %MON DXF_min                      =   1.0603184087719869E+05
(PID.TID 0000.0001) %MON DXF_mean                     =   1.0603184087719869E+05
(PID.TID 0000.0001) %MON DXF_sd                       =   0.0000000000000000E+00
(PID.TID 0000.0001) %MON DXG_max                      =   1.0573606049668728E+05
(PID.TID 0000.0001) %MON DXG_min                      =   1.0573606049668728E+05
(PID.TID 0000.0001) %MON DXG_mean                     =   1.0573606049668728E+05
(PID.TID 0000.0001) %MON DXG_sd                       =   0.0000000000000000E+00
(PID.TID 0000.0001) %MON DXV_max                      =   1.0573606049668728E+05
(PID.TID 0000.0001) %MON DXV_min                      =   1.0573606049668728E+05
(PID.TID 0000.0001) %MON DXV_mean                     =   1.0573606049668728E+05
(PID.TID 0000.0001) %MON DXV_sd                       =   0.0000000000000000E+00
(PID.TID 0000.0001) %MON YC_max                       =  -1.7500000000000000E+01
(PID.TID 0000.0001) %MON YC_min                       =  -1.7500000000000000E+01
(PID.TID 0000.0001) %MON YC_mean                      =  -1.7500000000000000E+01
(PID.TID 0000.0001) %MON YC_sd                        =   0.0000000000000000E+00
(PID.TID 0000.0001) %MON YG_max                       =  -1.8000000000000000E+01
(PID.TID 0000.0001) %MON YG_min                       =  -1.8000000000000000E+01
(PID.TID 0000.0001) %MON YG_mean                      =  -1.8000000000000000E+01
(PID.TID 0000.0001) %MON YG_sd                        =   0.0000000000000000E+00
(PID.TID 0000.0001) %MON DYC_max                      =   1.1117747335203880E+05
(PID.TID 0000.0001) %MON DYC_min                      =   1.1117747335203880E+05
(PID.TID 0000.0001) %MON DYC_mean                     =   1.1117747335203880E+05
(PID.TID 0000.0001) %MON DYC_sd                       =   0.0000000000000000E+00
(PID.TID 0000.0001) %MON DYF_max                      =   1.1117747335203880E+05
(PID.TID 0000.0001) %MON DYF_min                      =   1.1117747335203880E+05
(PID.TID 0000.0001) %MON DYF_mean                     =   1.1117747335203880E+05
(PID.TID 0000.0001) %MON DYF_sd                       =   0.0000000000000000E+00
(PID.TID 0000.0001) %MON DYG_max                      =   1.1117747335203880E+05
(PID.TID 0000.0001) %MON DYG_min                      =   1.1117747335203880E+05
(PID.TID 0000.0001) %MON DYG_mean                     =   1.1117747335203880E+05
(PID.TID 0000.0001) %MON DYG_sd                       =   0.0000000000000000E+00
(PID.TID 0000.0001) %MON DYU_max                      =   1.1117747335203880E+05
(PID.TID 0000.0001) %MON DYU_min                      =   1.1117747335203880E+05
(PID.TID 0000.0001) %MON DYU_mean                     =   1.1117747335203880E+05
(PID.TID 0000.0001) %MON DYU_sd                       =   0.0000000000000000E+00
(PID.TID 0000.0001) %MON RA_max                       =   1.1788202541769560E+10
(PID.TID 0000.0001) %MON RA_min                       =   1.1788202541769560E+10
(PID.TID 0000.0001) %MON RA_mean                      =   1.1788202541769560E+10
(PID.TID 0000.0001) %MON RA_sd                        =   0.0000000000000000E+00
(PID.TID 0000.0001) %MON RAW_max                      =   1.1788202541769560E+10
(PID.TID 0000.0001) %MON RAW_min                      =   1.1788202541769560E+10
(PID.TID 0000.0001) %MON RAW_mean                     =   1.1788202541769560E+10
(PID.TID 0000.0001) %MON RAW_sd                       =   0.0000000000000000E+00
(PID.TID 0000.0001) %MON RAS_max                      =   1.1755318843773766E+10
(PID.TID 0000.0001) %MON RAS_min                      =   1.1755318843773766E+10
(PID.TID 0000.0001) %MON RAS_mean                     =   1.1755318843773766E+10
(PID.TID 0000.0001) %MON RAS_sd                       =   0.0000000000000000E+00
(PID.TID 0000.0001) %MON RAZ_max                      =   1.1755318843773766E+10
(PID.TID 0000.0001) %MON RAZ_min                      =   1.1755318843773766E+10
(PID.TID 0000.0001) %MON RAZ_mean                     =   1.1755318843773766E+10
(PID.TID 0000.0001) %MON RAZ_sd                       =   0.0000000000000000E+00
(PID.TID 0000.0001) %MON AngleCS_max                  =   1.0000000000000000E+00
(PID.TID 0000.0001) %MON AngleCS_min                  =   1.0000000000000000E+00
(PID.TID 0000.0001) %MON AngleCS_mean                 =   1.0000000000000000E+00
(PID.TID 0000.0001) %MON AngleCS_sd                   =   0.0000000000000000E+00
(PID.TID 0000.0001) %MON AngleSN_max                  =   0.0000000000000000E+00
(PID.TID 0000.0001) %MON AngleSN_min                  =   0.0000000000000000E+00
(PID.TID 0000.0001) %MON AngleSN_mean                 =   0.0000000000000000E+00
(PID.TID 0000.0001) %MON AngleSN_sd                   =   0.0000000000000000E+00
(PID.TID 0000.0001)  MDS_READ_FIELD: opening global file: ../input/input/bathyneg.bin
(PID.TID 0000.0001) // =======================================================
(PID.TID 0000.0001) // Field Model R_low (ini_masks_etc)
(PID.TID 0000.0001) // CMIN =         -3.495000000000000E+03
(PID.TID 0000.0001) // CMAX =         -3.495000000000000E+03
(PID.TID 0000.0001) // CINT =          0.000000000000000E+00
(PID.TID 0000.0001) // SYMBOLS (CMIN->CMAX): -abcdefghijklmnopqrstuvwxyz+
(PID.TID 0000.0001) //                  0.0: .
(PID.TID 0000.0001) // RANGE I (Lo:Hi:Step):(    -1:     3:     1)
(PID.TID 0000.0001) // RANGE J (Lo:Hi:Step):(     3:    -1:    -1)
(PID.TID 0000.0001) // RANGE K (Lo:Hi:Step):(   1:   1:   1)
(PID.TID 0000.0001) // =======================================================
(PID.TID 0000.0001) // =======================================================
(PID.TID 0000.0001) // END OF FIELD                                          =
(PID.TID 0000.0001) // =======================================================
(PID.TID 0000.0001) 
(PID.TID 0000.0001) // =======================================================
(PID.TID 0000.0001) // Field Model Ro_surf (ini_masks_etc)
(PID.TID 0000.0001) // CMIN =          1.000000000000000E+32
(PID.TID 0000.0001) // CMAX =         -1.000000000000000E+32
(PID.TID 0000.0001) // CINT =          0.000000000000000E+00
(PID.TID 0000.0001) // SYMBOLS (CMIN->CMAX): -abcdefghijklmnopqrstuvwxyz+
(PID.TID 0000.0001) //                  0.0: .
(PID.TID 0000.0001) // RANGE I (Lo:Hi:Step):(    -1:     3:     1)
(PID.TID 0000.0001) // RANGE J (Lo:Hi:Step):(     3:    -1:    -1)
(PID.TID 0000.0001) // RANGE K (Lo:Hi:Step):(   1:   1:   1)
(PID.TID 0000.0001) // =======================================================
(PID.TID 0000.0001) // =======================================================
(PID.TID 0000.0001) // END OF FIELD                                          =
(PID.TID 0000.0001) // =======================================================
(PID.TID 0000.0001) 
(PID.TID 0000.0001) // =======================================================
(PID.TID 0000.0001) // Field hFacC at iteration          0
(PID.TID 0000.0001) // CMIN =          1.000000000000000E+00
(PID.TID 0000.0001) // CMAX =          1.000000000000000E+00
(PID.TID 0000.0001) // CINT =          0.000000000000000E+00
(PID.TID 0000.0001) // SYMBOLS (CMIN->CMAX): -abcdefghijklmnopqrstuvwxyz+
(PID.TID 0000.0001) //                  0.0: .
(PID.TID 0000.0001) // RANGE I (Lo:Hi:Step):(    -1:     3:     1)
(PID.TID 0000.0001) // RANGE J (Lo:Hi:Step):(     3:    -1:    -1)
(PID.TID 0000.0001) // RANGE K (Lo:Hi:Step):(   1:   1:   1)
(PID.TID 0000.0001) // =======================================================
(PID.TID 0000.0001) // =======================================================
(PID.TID 0000.0001) // END OF FIELD                                          =
(PID.TID 0000.0001) // =======================================================
(PID.TID 0000.0001) 
(PID.TID 0000.0001) // =======================================================
(PID.TID 0000.0001) // Field hFacW at iteration          0
(PID.TID 0000.0001) // CMIN =          1.000000000000000E+00
(PID.TID 0000.0001) // CMAX =          1.000000000000000E+00
(PID.TID 0000.0001) // CINT =          0.000000000000000E+00
(PID.TID 0000.0001) // SYMBOLS (CMIN->CMAX): -abcdefghijklmnopqrstuvwxyz+
(PID.TID 0000.0001) //                  0.0: .
(PID.TID 0000.0001) // RANGE I (Lo:Hi:Step):(    -1:     3:     1)
(PID.TID 0000.0001) // RANGE J (Lo:Hi:Step):(     3:    -1:    -1)
(PID.TID 0000.0001) // RANGE K (Lo:Hi:Step):(   1:   1:   1)
(PID.TID 0000.0001) // =======================================================
(PID.TID 0000.0001) // =======================================================
(PID.TID 0000.0001) // END OF FIELD                                          =
(PID.TID 0000.0001) // =======================================================
(PID.TID 0000.0001) 
(PID.TID 0000.0001) // =======================================================
(PID.TID 0000.0001) // Field hFacS at iteration          0
(PID.TID 0000.0001) // CMIN =          1.000000000000000E+00
(PID.TID 0000.0001) // CMAX =          1.000000000000000E+00
(PID.TID 0000.0001) // CINT =          0.000000000000000E+00
(PID.TID 0000.0001) // SYMBOLS (CMIN->CMAX): -abcdefghijklmnopqrstuvwxyz+
(PID.TID 0000.0001) //                  0.0: .
(PID.TID 0000.0001) // RANGE I (Lo:Hi:Step):(    -1:     3:     1)
(PID.TID 0000.0001) // RANGE J (Lo:Hi:Step):(     3:    -1:    -1)
(PID.TID 0000.0001) // RANGE K (Lo:Hi:Step):(   1:   1:   1)
(PID.TID 0000.0001) // =======================================================
(PID.TID 0000.0001) // =======================================================
(PID.TID 0000.0001) // END OF FIELD                                          =
(PID.TID 0000.0001) // =======================================================
(PID.TID 0000.0001) 
(PID.TID 0000.0001) 
(PID.TID 0000.0001) // =======================================================
(PID.TID 0000.0001) // Calendar configuration >>> START <<<
(PID.TID 0000.0001) // =======================================================
(PID.TID 0000.0001) 
(PID.TID 0000.0001) modelstart = /* Start time of the model integration [s] */
(PID.TID 0000.0001)                 0.000000000000000E+00
(PID.TID 0000.0001)     ;
(PID.TID 0000.0001) modelend  = /* End time of the model integration [s] */
(PID.TID 0000.0001)                 4.320000000000000E+04
(PID.TID 0000.0001)     ;
(PID.TID 0000.0001) modelstep = /* Time interval for a model forward step [s] */
(PID.TID 0000.0001)                 1.080000000000000E+04
(PID.TID 0000.0001)     ;
(PID.TID 0000.0001) usingGregorianCalendar= /* Calendar Type: Gregorian Calendar */
(PID.TID 0000.0001)                   F
(PID.TID 0000.0001)     ;
(PID.TID 0000.0001) usingJulianCalendar = /* Calendar Type: Julian Calendar */
(PID.TID 0000.0001)                   F
(PID.TID 0000.0001)     ;
(PID.TID 0000.0001) usingModelCalendar  = /* Calendar Type: Model Calendar */
(PID.TID 0000.0001)                   T
(PID.TID 0000.0001)     ;
(PID.TID 0000.0001) modelstartdate YYYYMMDD = /* Model start date YYYY-MM-DD */
(PID.TID 0000.0001)                19920101
(PID.TID 0000.0001)     ;
(PID.TID 0000.0001)   modelstartdate HHMMSS = /* Model start date HH-MM-SS  */
(PID.TID 0000.0001)                       0
(PID.TID 0000.0001)     ;
(PID.TID 0000.0001) modelenddate   YYYYMMDD = /* Model end date YYYY-MM-DD */
(PID.TID 0000.0001)                19920101
(PID.TID 0000.0001)     ;
(PID.TID 0000.0001)   modelenddate   HHMMSS = /* Model end date HH-MM-SS  */
(PID.TID 0000.0001)                  120000
(PID.TID 0000.0001)     ;
(PID.TID 0000.0001) intyears = /* Number of calendar years affected by the integration */
(PID.TID 0000.0001)                       1
(PID.TID 0000.0001)     ;
(PID.TID 0000.0001) intmonths= /* Number of calendar months affected by the integration */
(PID.TID 0000.0001)                       1
(PID.TID 0000.0001)     ;
(PID.TID 0000.0001) intdays = /* Number of calendar days affected by the integration */
(PID.TID 0000.0001)                       1
(PID.TID 0000.0001)     ;
(PID.TID 0000.0001) modeliter0 = /* Base timestep number  */
(PID.TID 0000.0001)                       0
(PID.TID 0000.0001)     ;
(PID.TID 0000.0001) modeliterend = /* Final timestep number  */
(PID.TID 0000.0001)                       4
(PID.TID 0000.0001)     ;
(PID.TID 0000.0001) modelintsteps= /* Number of model timesteps  */
(PID.TID 0000.0001)                       4
(PID.TID 0000.0001)     ;
(PID.TID 0000.0001) 
(PID.TID 0000.0001) // =======================================================
(PID.TID 0000.0001) // Calendar configuration  >>> END <<<
(PID.TID 0000.0001) // =======================================================
(PID.TID 0000.0001) 
(PID.TID 0000.0001) GAD_INIT_FIXED: GAD_OlMinSize=  2  0  1
(PID.TID 0000.0001) 
(PID.TID 0000.0001) // ===================================
(PID.TID 0000.0001) // GAD parameters :
(PID.TID 0000.0001) // ===================================
(PID.TID 0000.0001) tempAdvScheme =   /* Temp. Horiz.Advection scheme selector */
(PID.TID 0000.0001)                       3
(PID.TID 0000.0001)     ;
(PID.TID 0000.0001) tempVertAdvScheme =   /* Temp. Vert. Advection scheme selector */
(PID.TID 0000.0001)                       3
(PID.TID 0000.0001)     ;
(PID.TID 0000.0001) tempMultiDimAdvec =   /* use Muti-Dim Advec method for Temp */
(PID.TID 0000.0001)                   F
(PID.TID 0000.0001)     ;
(PID.TID 0000.0001) tempSOM_Advection = /* use 2nd Order Moment Advection for Temp */
(PID.TID 0000.0001)                   F
(PID.TID 0000.0001)     ;
(PID.TID 0000.0001) AdamsBashforthGt = /* apply Adams-Bashforth extrapolation on Gt */
(PID.TID 0000.0001)                   T
(PID.TID 0000.0001)     ;
(PID.TID 0000.0001) AdamsBashforth_T = /* apply Adams-Bashforth extrapolation on Temp */
(PID.TID 0000.0001)                   F
(PID.TID 0000.0001)     ;
(PID.TID 0000.0001) saltAdvScheme =   /* Salt. Horiz.advection scheme selector */
(PID.TID 0000.0001)                       3
(PID.TID 0000.0001)     ;
(PID.TID 0000.0001) saltVertAdvScheme =   /* Salt. Vert. Advection scheme selector */
(PID.TID 0000.0001)                       3
(PID.TID 0000.0001)     ;
(PID.TID 0000.0001) saltMultiDimAdvec =   /* use Muti-Dim Advec method for Salt */
(PID.TID 0000.0001)                   F
(PID.TID 0000.0001)     ;
(PID.TID 0000.0001) saltSOM_Advection = /* use 2nd Order Moment Advection for Salt */
(PID.TID 0000.0001)                   F
(PID.TID 0000.0001)     ;
(PID.TID 0000.0001) AdamsBashforthGs = /* apply Adams-Bashforth extrapolation on Gs */
(PID.TID 0000.0001)                   F
(PID.TID 0000.0001)     ;
(PID.TID 0000.0001) AdamsBashforth_S = /* apply Adams-Bashforth extrapolation on Salt */
(PID.TID 0000.0001)                   F
(PID.TID 0000.0001)     ;
(PID.TID 0000.0001) // ===================================
(PID.TID 0000.0001) 
(PID.TID 0000.0001) // =======================================================
(PID.TID 0000.0001) // External forcing (EXF) configuration >>> START <<<
(PID.TID 0000.0001) // =======================================================
(PID.TID 0000.0001) 
(PID.TID 0000.0001)  EXF general parameters:
(PID.TID 0000.0001) 
(PID.TID 0000.0001) exf_iprec = /* exf file precision */
(PID.TID 0000.0001)                      32
(PID.TID 0000.0001)     ;
(PID.TID 0000.0001) useExfYearlyFields = /* add extension _YEAR to input file names */
(PID.TID 0000.0001)                   T
(PID.TID 0000.0001)     ;
(PID.TID 0000.0001) twoDigitYear = /* use 2-digit year extension */
(PID.TID 0000.0001)                   T
(PID.TID 0000.0001)     ;
(PID.TID 0000.0001) exf_verbose = /* print more messages to STDOUT */
(PID.TID 0000.0001)                   F
(PID.TID 0000.0001)     ;
(PID.TID 0000.0001) useExfCheckRange = /* check for fields range */
(PID.TID 0000.0001)                   F
(PID.TID 0000.0001)     ;
(PID.TID 0000.0001) exf_monFreq = /* EXF monitor frequency [ s ] */
(PID.TID 0000.0001)                 1.000000000000000E+00
(PID.TID 0000.0001)     ;
(PID.TID 0000.0001) repeatPeriod = /* period for cycling forcing dataset [ s ] */
(PID.TID 0000.0001)                 0.000000000000000E+00
(PID.TID 0000.0001)     ;
(PID.TID 0000.0001) climTempFreeze= /* Minimum climatological temperature [deg.C] */
(PID.TID 0000.0001)                -1.900000000000000E+00
(PID.TID 0000.0001)     ;
(PID.TID 0000.0001) windStressMax = /* Maximum absolute windstress [ Pa ] */
(PID.TID 0000.0001)                 2.000000000000000E+00
(PID.TID 0000.0001)     ;
(PID.TID 0000.0001) stressIsOnCgrid = /* set u,v_stress on Arakawa C-grid */
(PID.TID 0000.0001)                   F
(PID.TID 0000.0001)     ;
(PID.TID 0000.0001) cen2kel = /* conversion of deg. Centigrade to Kelvin [K] */
(PID.TID 0000.0001)                 2.731500000000000E+02
(PID.TID 0000.0001)     ;
(PID.TID 0000.0001) gravity_mks= /* gravitational acceleration [m/s^2] */
(PID.TID 0000.0001)                 9.810000000000000E+00
(PID.TID 0000.0001)     ;
(PID.TID 0000.0001) atmrho =  /* mean atmospheric density [kg/m^3] */
(PID.TID 0000.0001)                 1.200000000000000E+00
(PID.TID 0000.0001)     ;
(PID.TID 0000.0001) atmcp =  /* mean atmospheric specific heat [J/kg/K] */
(PID.TID 0000.0001)                 1.005000000000000E+03
(PID.TID 0000.0001)     ;
(PID.TID 0000.0001) flamb =  /* latent heat of evaporation [J/kg] */
(PID.TID 0000.0001)                 2.500000000000000E+06
(PID.TID 0000.0001)     ;
(PID.TID 0000.0001) flami =  /* latent heat of pure-ice melting [J/kg] */
(PID.TID 0000.0001)                 3.340000000000000E+05
(PID.TID 0000.0001)     ;
(PID.TID 0000.0001) cvapor_fac = /* const. for Saturation calculation [?] */
(PID.TID 0000.0001)                 6.403800000000000E+05
(PID.TID 0000.0001)     ;
(PID.TID 0000.0001) cvapor_exp = /* const. for Saturation calculation [?] */
(PID.TID 0000.0001)                 5.107400000000000E+03
(PID.TID 0000.0001)     ;
(PID.TID 0000.0001) cvapor_fac_ice= /* const. for Saturation calculation [?] */
(PID.TID 0000.0001)                 1.163780000000000E+07
(PID.TID 0000.0001)     ;
(PID.TID 0000.0001) cvapor_exp_ice= /* const. for Saturation calculation [?] */
(PID.TID 0000.0001)                 5.897800000000000E+03
(PID.TID 0000.0001)     ;
(PID.TID 0000.0001) humid_fac = /* humidity coef. in virtual temp. [(kg/kg)^-1] */
(PID.TID 0000.0001)                 6.060000000000000E-01
(PID.TID 0000.0001)     ;
(PID.TID 0000.0001) gamma_blk = /* adiabatic lapse rate [?] */
(PID.TID 0000.0001)                 1.000000000000000E-02
(PID.TID 0000.0001)     ;
(PID.TID 0000.0001) saltsat = /* reduction of Qsat over salty water [-] */
(PID.TID 0000.0001)                 9.800000000000000E-01
(PID.TID 0000.0001)     ;
(PID.TID 0000.0001) noNegativeEvap = /* prevent negative Evaporation */
(PID.TID 0000.0001)                   F
(PID.TID 0000.0001)     ;
(PID.TID 0000.0001) sstExtrapol = /* extrapolation coeff from lev. 1 & 2 to surf [-] */
(PID.TID 0000.0001)                 0.000000000000000E+00
(PID.TID 0000.0001)     ;
(PID.TID 0000.0001) cDrag_1 = /* coef used in drag calculation [?] */
(PID.TID 0000.0001)                 2.700000000000000E-03
(PID.TID 0000.0001)     ;
(PID.TID 0000.0001) cDrag_2 = /* coef used in drag calculation [?] */
(PID.TID 0000.0001)                 1.420000000000000E-04
(PID.TID 0000.0001)     ;
(PID.TID 0000.0001) cDrag_3 = /* coef used in drag calculation [?] */
(PID.TID 0000.0001)                 7.640000000000000E-05
(PID.TID 0000.0001)     ;
(PID.TID 0000.0001) cStanton_1 = /* coef used in Stanton number calculation [?] */
(PID.TID 0000.0001)                 3.270000000000000E-02
(PID.TID 0000.0001)     ;
(PID.TID 0000.0001) cStanton_2 = /* coef used in Stanton number calculation [?] */
(PID.TID 0000.0001)                 1.800000000000000E-02
(PID.TID 0000.0001)     ;
(PID.TID 0000.0001) cDalton = /* coef used in Dalton number calculation [?] */
(PID.TID 0000.0001)                 3.460000000000000E-02
(PID.TID 0000.0001)     ;
(PID.TID 0000.0001) exf_scal_BulkCdn= /* Drag coefficient scaling factor [-] */
(PID.TID 0000.0001)                 1.000000000000000E+00
(PID.TID 0000.0001)     ;
(PID.TID 0000.0001) zolmin = /* minimum stability parameter [?] */
(PID.TID 0000.0001)                -1.000000000000000E+02
(PID.TID 0000.0001)     ;
(PID.TID 0000.0001) psim_fac = /* coef used in turbulent fluxes calculation [-] */
(PID.TID 0000.0001)                 5.000000000000000E+00
(PID.TID 0000.0001)     ;
(PID.TID 0000.0001) zref =  /* reference height [ m ] */
(PID.TID 0000.0001)                 1.000000000000000E+01
(PID.TID 0000.0001)     ;
(PID.TID 0000.0001) hu =  /* height of mean wind [ m ] */
(PID.TID 0000.0001)                 1.000000000000000E+01
(PID.TID 0000.0001)     ;
(PID.TID 0000.0001) ht =  /* height of mean temperature [ m ] */
(PID.TID 0000.0001)                 2.000000000000000E+00
(PID.TID 0000.0001)     ;
(PID.TID 0000.0001) hq =  /* height of mean spec.humidity [ m ] */
(PID.TID 0000.0001)                 2.000000000000000E+00
(PID.TID 0000.0001)     ;
(PID.TID 0000.0001) uMin = /* minimum wind speed [m/s] */
(PID.TID 0000.0001)                 5.000000000000000E-01
(PID.TID 0000.0001)     ;
(PID.TID 0000.0001) useStabilityFct_overIce= /* transfert Coeffs over sea-ice depend on stability */
(PID.TID 0000.0001)                   F
(PID.TID 0000.0001)     ;
(PID.TID 0000.0001) exf_iceCd = /* drag coefficient over sea-ice (fixed) [-] */
(PID.TID 0000.0001)                 1.630000000000000E-03
(PID.TID 0000.0001)     ;
(PID.TID 0000.0001) exf_iceCe = /* transfert coeff. over sea-ice, for Evap (fixed) [-] */
(PID.TID 0000.0001)                 1.630000000000000E-03
(PID.TID 0000.0001)     ;
(PID.TID 0000.0001) exf_iceCh = /* transfert coeff. over sea-ice, Sens.Heat.(fixed)[-] */
(PID.TID 0000.0001)                 1.630000000000000E-03
(PID.TID 0000.0001)     ;
(PID.TID 0000.0001) exf_albedo =  /* Sea-water albedo [-] */
(PID.TID 0000.0001)                 1.500000000000000E-01
(PID.TID 0000.0001)     ;
(PID.TID 0000.0001) useExfZenAlbedo = /* Sea-water albedo varies with zenith angle */
(PID.TID 0000.0001)                   F
(PID.TID 0000.0001)     ;
(PID.TID 0000.0001) select_ZenAlbedo = /* Sea-water albedo computation method */
(PID.TID 0000.0001)                       0
(PID.TID 0000.0001)     ;
(PID.TID 0000.0001) useExfZenIncoming = /* compute incoming solar radiation */
(PID.TID 0000.0001)                   F
(PID.TID 0000.0001)     ;
(PID.TID 0000.0001) ocean_emissivity = /* longwave ocean-surface emissivity [-] */
(PID.TID 0000.0001)                 9.700176366843034E-01
(PID.TID 0000.0001)     ;
(PID.TID 0000.0001) ice_emissivity = /* longwave seaice emissivity [-] */
(PID.TID 0000.0001)                 9.500000000000000E-01
(PID.TID 0000.0001)     ;
(PID.TID 0000.0001) snow_emissivity = /* longwave snow  emissivity [-] */
(PID.TID 0000.0001)                 9.500000000000000E-01
(PID.TID 0000.0001)     ;
(PID.TID 0000.0001) 
(PID.TID 0000.0001)  EXF main CPP flags:
(PID.TID 0000.0001) 
(PID.TID 0000.0001) // USE_EXF_INTERPOLATION:          NOT defined
(PID.TID 0000.0001) // ALLOW_ATM_TEMP:                     defined
(PID.TID 0000.0001) // ALLOW_ATM_WIND (useAtmWind):        defined
(PID.TID 0000.0001) // ALLOW_DOWNWARD_RADIATION:           defined
(PID.TID 0000.0001) // ALLOW_BULKFORMULAE:                 defined
(PID.TID 0000.0001) 
(PID.TID 0000.0001)    Net shortwave flux forcing starts at                0.
(PID.TID 0000.0001)    Net shortwave flux forcing period is                0.
(PID.TID 0000.0001)    Net shortwave flux forcing is read from file:
(PID.TID 0000.0001)    >>    <<
(PID.TID 0000.0001) 
(PID.TID 0000.0001)    Zonal wind forcing starts at                          0.
(PID.TID 0000.0001)    Zonal wind forcing period is                          0.
(PID.TID 0000.0001)    Zonal wind forcing is read from file:
(PID.TID 0000.0001)    >>    <<
(PID.TID 0000.0001) 
(PID.TID 0000.0001)    Meridional wind forcing starts at                     0.
(PID.TID 0000.0001)    Meridional wind forcing period is                     0.
(PID.TID 0000.0001)    Meridional wind forcing is read from file:
(PID.TID 0000.0001)    >>    <<
(PID.TID 0000.0001) 
(PID.TID 0000.0001)    Atmospheric temperature starts at                     0.
(PID.TID 0000.0001)    Atmospheric temperature period is                     0.
(PID.TID 0000.0001)    Atmospheric temperature is read from file:
(PID.TID 0000.0001)    >>    <<
(PID.TID 0000.0001) 
(PID.TID 0000.0001)    Atmospheric specific humidity starts at               0.
(PID.TID 0000.0001)    Atmospheric specific humidity period is               0.
(PID.TID 0000.0001)    Atmospheric specific humidity is read from file:
(PID.TID 0000.0001)    >>    <<
(PID.TID 0000.0001) 
(PID.TID 0000.0001)    Net longwave flux forcing starts at                 0.
(PID.TID 0000.0001)    Net longwave flux forcing period is                 0.
(PID.TID 0000.0001)    Net longwave flux forcing is read from file:
(PID.TID 0000.0001)    >>    <<
(PID.TID 0000.0001) 
(PID.TID 0000.0001)    Precipitation data set starts at                      0.
(PID.TID 0000.0001)    Precipitation data period is                          0.
(PID.TID 0000.0001)    Precipitation data is read from file:
(PID.TID 0000.0001)    >>    <<
(PID.TID 0000.0001) 
(PID.TID 0000.0001) // EXF_READ_EVAP:                  NOT defined
(PID.TID 0000.0001) 
(PID.TID 0000.0001) // ALLOW_RUNOFF:                       defined
(PID.TID 0000.0001)    Runoff starts at               0.
(PID.TID 0000.0001)    Runoff period is               0.
(PID.TID 0000.0001)    Runoff is read from file:
(PID.TID 0000.0001)    >>    <<
(PID.TID 0000.0001) 
(PID.TID 0000.0001)    Downward shortwave flux forcing starts at                0.
(PID.TID 0000.0001)    Downward shortwave flux forcing period is                0.
(PID.TID 0000.0001)    Downward shortwave flux forcing is read from file:
(PID.TID 0000.0001)    >>    <<
(PID.TID 0000.0001) 
(PID.TID 0000.0001)    Downward longwave flux forcing starts at                 0.
(PID.TID 0000.0001)    Downward longwave flux forcing period is                 0.
(PID.TID 0000.0001)    Downward longwave flux forcing is read from file:
(PID.TID 0000.0001)    >>    <<
(PID.TID 0000.0001) 
(PID.TID 0000.0001)    Atmospheric pressure forcing starts at                0.
(PID.TID 0000.0001)    Atmospheric pressure forcing period is                0.
(PID.TID 0000.0001)    Atmospheric pressureforcing is read from file:
(PID.TID 0000.0001)    >>    <<
(PID.TID 0000.0001) 
(PID.TID 0000.0001) // =======================================================
(PID.TID 0000.0001) // External forcing (EXF) climatology configuration :
(PID.TID 0000.0001) // =======================================================
(PID.TID 0000.0001) 
(PID.TID 0000.0001) // ALLOW_CLIMSST_RELAXATION:       NOT defined
(PID.TID 0000.0001) // ALLOW_CLIMSSS_RELAXATION:       NOT defined
(PID.TID 0000.0001) 
(PID.TID 0000.0001) // =======================================================
(PID.TID 0000.0001) // External forcing (EXF) configuration  >>> END <<<
(PID.TID 0000.0001) // =======================================================
(PID.TID 0000.0001) 
(PID.TID 0000.0001) QQ random port_rand            11231   0.4077530000000000
(PID.TID 0000.0001)  DARWIN_INIT_FIXED: opening data.traits
(PID.TID 0000.0001)  OPEN_COPY_DATA_FILE: opening file data.traits
(PID.TID 0000.0001) // =======================================================
(PID.TID 0000.0001) // Parameter file "data.traits"
(PID.TID 0000.0001) // =======================================================
(PID.TID 0000.0001) > &DARWIN_TRAITS
(PID.TID 0000.0001) > chl2cmin(:)= 15*0.0,
(PID.TID 0000.0001) > chl2cmax(:)= 15*1e10,
(PID.TID 0000.0001) ># no P or Si limitations
(PID.TID 0000.0001) > ksatPO4(:)= 15*0.0,
(PID.TID 0000.0001) > ksatSiO2(:)= 15*0.0,
(PID.TID 0000.0001) > /
(PID.TID 0000.0001) 
(PID.TID 0000.0001)  ===================================
(PID.TID 0000.0001) ------------------------------------------------------------
(PID.TID 0000.0001) DIAGNOSTICS_SET_LEVELS: done
(PID.TID 0000.0001)  Total Nb of available Diagnostics: ndiagt=  1387
(PID.TID 0000.0001)  write list of available Diagnostics to file: available_diagnostics.log
(PID.TID 0000.0001) SETDIAG: Allocate 35 x  1 Levels for Diagnostic #   156 TRAC01
(PID.TID 0000.0001) SETDIAG: Allocate 35 x  1 Levels for Diagnostic #   169 TRAC02
(PID.TID 0000.0001) SETDIAG: Allocate 35 x  1 Levels for Diagnostic #   182 TRAC03
(PID.TID 0000.0001) SETDIAG: Allocate 35 x  1 Levels for Diagnostic #   195 TRAC04
(PID.TID 0000.0001) SETDIAG: Allocate 35 x  1 Levels for Diagnostic #   208 TRAC05
(PID.TID 0000.0001) SETDIAG: Allocate 35 x  1 Levels for Diagnostic #   221 TRAC06
(PID.TID 0000.0001) SETDIAG: Allocate 35 x  1 Levels for Diagnostic #   234 TRAC07
(PID.TID 0000.0001) SETDIAG: Allocate 35 x  1 Levels for Diagnostic #   247 TRAC08
(PID.TID 0000.0001) SETDIAG: Allocate 35 x  1 Levels for Diagnostic #   260 TRAC09
(PID.TID 0000.0001) SETDIAG: Allocate 35 x  1 Levels for Diagnostic #   273 TRAC10
(PID.TID 0000.0001) SETDIAG: Allocate 35 x  1 Levels for Diagnostic #   286 TRAC11
(PID.TID 0000.0001) SETDIAG: Allocate 35 x  1 Levels for Diagnostic #   299 TRAC12
(PID.TID 0000.0001) SETDIAG: Allocate 35 x  1 Levels for Diagnostic #   312 TRAC13
(PID.TID 0000.0001) SETDIAG: Allocate 35 x  1 Levels for Diagnostic #   325 TRAC14
(PID.TID 0000.0001) SETDIAG: Allocate 35 x  1 Levels for Diagnostic #   338 TRAC15
(PID.TID 0000.0001) SETDIAG: Allocate 35 x  1 Levels for Diagnostic #   351 TRAC16
(PID.TID 0000.0001) SETDIAG: Allocate 35 x  1 Levels for Diagnostic #   364 TRAC17
(PID.TID 0000.0001) SETDIAG: Allocate 35 x  1 Levels for Diagnostic #   377 TRAC18
(PID.TID 0000.0001) SETDIAG: Allocate 35 x  1 Levels for Diagnostic #   390 TRAC19
(PID.TID 0000.0001) SETDIAG: Allocate 35 x  1 Levels for Diagnostic #   403 TRAC20
(PID.TID 0000.0001) SETDIAG: Allocate 35 x  1 Levels for Diagnostic #   416 TRAC21
(PID.TID 0000.0001) SETDIAG: Allocate 35 x  1 Levels for Diagnostic #   429 TRAC22
(PID.TID 0000.0001) SETDIAG: Allocate 35 x  1 Levels for Diagnostic #   442 TRAC23
(PID.TID 0000.0001) SETDIAG: Allocate 35 x  1 Levels for Diagnostic #   455 TRAC24
(PID.TID 0000.0001) SETDIAG: Allocate 35 x  1 Levels for Diagnostic #   468 TRAC25
(PID.TID 0000.0001) SETDIAG: Allocate 35 x  1 Levels for Diagnostic #   481 TRAC26
(PID.TID 0000.0001) SETDIAG: Allocate 35 x  1 Levels for Diagnostic #   494 TRAC27
(PID.TID 0000.0001) SETDIAG: Allocate 35 x  1 Levels for Diagnostic #   507 TRAC28
(PID.TID 0000.0001) SETDIAG: Allocate 35 x  1 Levels for Diagnostic #   520 TRAC29
(PID.TID 0000.0001) SETDIAG: Allocate 35 x  1 Levels for Diagnostic #   533 TRAC30
(PID.TID 0000.0001) SETDIAG: Allocate 35 x  1 Levels for Diagnostic #   546 TRAC31
(PID.TID 0000.0001) SETDIAG: Allocate 35 x  1 Levels for Diagnostic #   559 TRAC32
(PID.TID 0000.0001) SETDIAG: Allocate 35 x  1 Levels for Diagnostic #   572 TRAC33
(PID.TID 0000.0001) SETDIAG: Allocate 35 x  1 Levels for Diagnostic #   585 TRAC34
(PID.TID 0000.0001) SETDIAG: Allocate 35 x  1 Levels for Diagnostic #   598 TRAC35
(PID.TID 0000.0001) SETDIAG: Allocate 35 x  1 Levels for Diagnostic #   611 TRAC36
(PID.TID 0000.0001) SETDIAG: Allocate 35 x  1 Levels for Diagnostic #   624 TRAC37
(PID.TID 0000.0001) SETDIAG: Allocate 35 x  1 Levels for Diagnostic #   637 TRAC38
(PID.TID 0000.0001) SETDIAG: Allocate 35 x  1 Levels for Diagnostic #   650 TRAC39
(PID.TID 0000.0001) SETDIAG: Allocate 35 x  1 Levels for Diagnostic #   663 TRAC40
(PID.TID 0000.0001) SETDIAG: Allocate 35 x  1 Levels for Diagnostic #   676 TRAC41
(PID.TID 0000.0001) SETDIAG: Allocate 35 x  1 Levels for Diagnostic #   689 TRAC42
(PID.TID 0000.0001) SETDIAG: Allocate 35 x  1 Levels for Diagnostic #   702 TRAC43
(PID.TID 0000.0001) SETDIAG: Allocate 35 x  1 Levels for Diagnostic #   715 TRAC44
(PID.TID 0000.0001) SETDIAG: Allocate 35 x  1 Levels for Diagnostic #   728 TRAC45
(PID.TID 0000.0001) SETDIAG: Allocate 35 x  1 Levels for Diagnostic #   741 TRAC46
(PID.TID 0000.0001) SETDIAG: Allocate 35 x  1 Levels for Diagnostic #   754 TRAC47
(PID.TID 0000.0001) SETDIAG: Allocate 35 x  1 Levels for Diagnostic #   767 TRAC48
(PID.TID 0000.0001) SETDIAG: Allocate 35 x  1 Levels for Diagnostic #   780 TRAC49
(PID.TID 0000.0001) SETDIAG: Allocate 35 x  1 Levels for Diagnostic #   793 TRAC50
(PID.TID 0000.0001) SETDIAG: Allocate 35 x  1 Levels for Diagnostic #   806 TRAC51
(PID.TID 0000.0001) SETDIAG: Allocate 35 x  1 Levels for Diagnostic #   819 TRAC52
(PID.TID 0000.0001) SETDIAG: Allocate 35 x  1 Levels for Diagnostic #   832 TRAC53
(PID.TID 0000.0001) SETDIAG: Allocate 35 x  1 Levels for Diagnostic #   845 TRAC54
(PID.TID 0000.0001) SETDIAG: Allocate 35 x  1 Levels for Diagnostic #   858 TRAC55
(PID.TID 0000.0001) SETDIAG: Allocate 35 x  1 Levels for Diagnostic #   871 TRAC56
(PID.TID 0000.0001) SETDIAG: Allocate 35 x  1 Levels for Diagnostic #   884 TRAC57
(PID.TID 0000.0001) SETDIAG: Allocate 35 x  1 Levels for Diagnostic #   897 TRAC58
(PID.TID 0000.0001) SETDIAG: Allocate 35 x  1 Levels for Diagnostic #   910 TRAC59
(PID.TID 0000.0001) SETDIAG: Allocate 35 x  1 Levels for Diagnostic #   923 TRAC60
(PID.TID 0000.0001) SETDIAG: Allocate 35 x  1 Levels for Diagnostic #   936 TRAC61
(PID.TID 0000.0001) SETDIAG: Allocate 35 x  1 Levels for Diagnostic #   949 TRAC62
(PID.TID 0000.0001) SETDIAG: Allocate 35 x  1 Levels for Diagnostic #   962 TRAC63
(PID.TID 0000.0001) SETDIAG: Allocate 35 x  1 Levels for Diagnostic #   975 TRAC64
(PID.TID 0000.0001) SETDIAG: Allocate 35 x  1 Levels for Diagnostic #   988 TRAC65
(PID.TID 0000.0001) SETDIAG: Allocate 35 x  1 Levels for Diagnostic #  1001 TRAC66
(PID.TID 0000.0001) SETDIAG: Allocate 35 x  1 Levels for Diagnostic #  1014 TRAC67
(PID.TID 0000.0001) SETDIAG: Allocate 35 x  1 Levels for Diagnostic #  1027 TRAC68
(PID.TID 0000.0001) SETDIAG: Allocate 35 x  1 Levels for Diagnostic #  1040 TRAC69
(PID.TID 0000.0001) SETDIAG: Allocate 35 x  1 Levels for Diagnostic #  1053 TRAC70
(PID.TID 0000.0001) SETDIAG: Allocate 35 x  1 Levels for Diagnostic #  1066 TRAC71
(PID.TID 0000.0001) SETDIAG: Allocate 35 x  1 Levels for Diagnostic #  1079 TRAC72
(PID.TID 0000.0001) SETDIAG: Allocate 35 x  1 Levels for Diagnostic #  1092 TRAC73
(PID.TID 0000.0001) SETDIAG: Allocate 35 x  1 Levels for Diagnostic #  1105 TRAC74
(PID.TID 0000.0001) SETDIAG: Allocate 35 x  1 Levels for Diagnostic #  1118 TRAC75
(PID.TID 0000.0001) SETDIAG: Allocate 35 x  1 Levels for Diagnostic #  1131 TRAC76
(PID.TID 0000.0001) SETDIAG: Allocate 35 x  1 Levels for Diagnostic #  1144 TRAC77
(PID.TID 0000.0001) SETDIAG: Allocate 35 x  1 Levels for Diagnostic #  1157 TRAC78
(PID.TID 0000.0001) SETDIAG: Allocate 35 x  1 Levels for Diagnostic #  1170 TRAC79
(PID.TID 0000.0001) SETDIAG: Allocate 35 x  1 Levels for Diagnostic #  1183 TRAC80
(PID.TID 0000.0001) SETDIAG: Allocate 35 x  1 Levels for Diagnostic #  1201 PAR01
(PID.TID 0000.0001) SETDIAG: Allocate 35 x  1 Levels for Diagnostic #  1208 DIC_c01
(PID.TID 0000.0001) SETDIAG: Allocate 35 x  1 Levels for Diagnostic #  1219 DIC_c02
(PID.TID 0000.0001) SETDIAG: Allocate 35 x  1 Levels for Diagnostic #  1209 c01_DOC
(PID.TID 0000.0001) SETDIAG: Allocate 35 x  1 Levels for Diagnostic #  1220 c02_DOC
(PID.TID 0000.0001) SETDIAG: Allocate 35 x  1 Levels for Diagnostic #  1210 c01_POC
(PID.TID 0000.0001) SETDIAG: Allocate 35 x  1 Levels for Diagnostic #  1221 c02_POC
(PID.TID 0000.0001) SETDIAG: Allocate 35 x  1 Levels for Diagnostic #  1200 PARF
(PID.TID 0000.0001) SETDIAG: Allocate 35 x  1 Levels for Diagnostic #  1197 atten
(PID.TID 0000.0001) SETDIAG: Allocate 35 x  1 Levels for Diagnostic #  1199 surfPAR
(PID.TID 0000.0001) SETDIAG: Allocate 35 x  1 Levels for Diagnostic #  1198 exfPAR
(PID.TID 0000.0001) SETDIAG: Allocate 35 x  1 Levels for Diagnostic #  1202 limn01
(PID.TID 0000.0001) SETDIAG: Allocate 35 x  1 Levels for Diagnostic #  1203 limp01
(PID.TID 0000.0001) SETDIAG: Allocate 35 x  1 Levels for Diagnostic #  1204 limsi01
(PID.TID 0000.0001) SETDIAG: Allocate 35 x  1 Levels for Diagnostic #  1205 limfe01
(PID.TID 0000.0001) SETDIAG: Allocate 35 x  1 Levels for Diagnostic #  1206 limI01
(PID.TID 0000.0001) SETDIAG: Allocate 35 x  1 Levels for Diagnostic #  1207 limT01
(PID.TID 0000.0001) SETDIAG: Allocate 35 x  1 Levels for Diagnostic #  1211 c01_c
(PID.TID 0000.0001) SETDIAG: Allocate 35 x  1 Levels for Diagnostic #  1222 c02_c
(PID.TID 0000.0001) SETDIAG: Allocate 35 x  1 Levels for Diagnostic #  1234 c_c03
(PID.TID 0000.0001) SETDIAG: Allocate 35 x  1 Levels for Diagnostic #  1245 c_c04
(PID.TID 0000.0001) SETDIAG: Allocate 35 x  1 Levels for Diagnostic #  1378 c_DOC
(PID.TID 0000.0001) SETDIAG: Allocate 35 x  1 Levels for Diagnostic #  1379 c_POC
(PID.TID 0000.0001) SETDIAG: Allocate 35 x  1 Levels for Diagnostic #  1380 c_PIC
(PID.TID 0000.0001) SETDIAG: Allocate 35 x  1 Levels for Diagnostic #  1381 n_DON
(PID.TID 0000.0001) SETDIAG: Allocate 35 x  1 Levels for Diagnostic #  1382 n_PON
(PID.TID 0000.0001) SETDIAG: Allocate 35 x  1 Levels for Diagnostic #  1383 p_DOP
(PID.TID 0000.0001) SETDIAG: Allocate 35 x  1 Levels for Diagnostic #  1384 p_POP
(PID.TID 0000.0001)   space allocated for all diagnostics:    3780 levels
(PID.TID 0000.0001) DIAGNOSTICS_SET_POINTERS: Set levels for Outp.Stream: darwin
(PID.TID 0000.0001)  Levels:       1.   2.   3.   4.   5.   6.   7.   8.   9.  10.  11.  12.  13.  14.  15.  16.  17.  18.  19.  20.
(PID.TID 0000.0001)  Levels:      21.  22.  23.  24.  25.  26.  27.  28.  29.  30.  31.  32.  33.  34.  35.
(PID.TID 0000.0001) DIAGNOSTICS_SET_POINTERS: done
(PID.TID 0000.0001) ------------------------------------------------------------
(PID.TID 0000.0001) DIAGSTATS_SET_REGIONS: define no region
(PID.TID 0000.0001) ------------------------------------------------------------
(PID.TID 0000.0001)   space allocated for all stats-diags:       0 levels
(PID.TID 0000.0001) DIAGSTATS_SET_POINTERS: done
(PID.TID 0000.0001) ------------------------------------------------------------
(PID.TID 0000.0001) %MON fCori_max                    =  -4.3855676645210050E-05
(PID.TID 0000.0001) %MON fCori_min                    =  -4.3855676645210050E-05
(PID.TID 0000.0001) %MON fCori_mean                   =  -4.3855676645210050E-05
(PID.TID 0000.0001) %MON fCori_sd                     =   0.0000000000000000E+00
(PID.TID 0000.0001) %MON fCoriG_max                   =  -4.5067801836624727E-05
(PID.TID 0000.0001) %MON fCoriG_min                   =  -4.5067801836624727E-05
(PID.TID 0000.0001) %MON fCoriG_mean                  =  -4.5067801836624727E-05
(PID.TID 0000.0001) %MON fCoriG_sd                    =   0.0000000000000000E+00
(PID.TID 0000.0001) %MON fCoriCos_max                 =   1.3909243610206993E-04
(PID.TID 0000.0001) %MON fCoriCos_min                 =   1.3909243610206993E-04
(PID.TID 0000.0001) %MON fCoriCos_mean                =   1.3909243610206993E-04
(PID.TID 0000.0001) %MON fCoriCos_sd                  =   0.0000000000000000E+00
(PID.TID 0000.0001) INI_CG2D: CG2D normalisation factor =  2.7288038648017932E-04
(PID.TID 0000.0001) 
(PID.TID 0000.0001) // =======================================================
(PID.TID 0000.0001) // Model configuration
(PID.TID 0000.0001) // =======================================================
(PID.TID 0000.0001) //
(PID.TID 0000.0001) // "Physical" paramters ( PARM01 in namelist )
(PID.TID 0000.0001) //
(PID.TID 0000.0001) buoyancyRelation = /* Type of relation to get Buoyancy */
(PID.TID 0000.0001)               'OCEANIC'
(PID.TID 0000.0001)     ;
(PID.TID 0000.0001) fluidIsAir   =  /* fluid major constituent is Air */
(PID.TID 0000.0001)                   F
(PID.TID 0000.0001)     ;
(PID.TID 0000.0001) fluidIsWater =  /* fluid major constituent is Water */
(PID.TID 0000.0001)                   T
(PID.TID 0000.0001)     ;
(PID.TID 0000.0001) usingPCoords =  /* use p (or p*) vertical coordinate */
(PID.TID 0000.0001)                   F
(PID.TID 0000.0001)     ;
(PID.TID 0000.0001) usingZCoords =  /* use z (or z*) vertical coordinate */
(PID.TID 0000.0001)                   T
(PID.TID 0000.0001)     ;
(PID.TID 0000.0001) tRef =   /* Reference temperature profile ( oC or K ) */
(PID.TID 0000.0001)                 2.650000000000000E+01,      /* K =  1 */
(PID.TID 0000.0001)                 2.610000000000000E+01,      /* K =  2 */
(PID.TID 0000.0001)                 2.600000000000000E+01,      /* K =  3 */
(PID.TID 0000.0001)                 2.550000000000000E+01,      /* K =  4 */
(PID.TID 0000.0001)                 2.540000000000000E+01,      /* K =  5 */
(PID.TID 0000.0001)                 2.490000000000000E+01,      /* K =  6 */
(PID.TID 0000.0001)                 2.450000000000000E+01,      /* K =  7 */
(PID.TID 0000.0001)                 2.400000000000000E+01,      /* K =  8 */
(PID.TID 0000.0001)                 2.370000000000000E+01,      /* K =  9 */
(PID.TID 0000.0001)                 2.330000000000000E+01,      /* K = 10 */
(PID.TID 0000.0001)                 2.310000000000000E+01,      /* K = 11 */
(PID.TID 0000.0001)                 2.280000000000000E+01,      /* K = 12 */
(PID.TID 0000.0001)                 2.250000000000000E+01,      /* K = 13 */
(PID.TID 0000.0001)                 2.210000000000000E+01,      /* K = 14 */
(PID.TID 0000.0001)                 2.160000000000000E+01,      /* K = 15 */
(PID.TID 0000.0001)                 2.060000000000000E+01,      /* K = 16 */
(PID.TID 0000.0001)                 1.950000000000000E+01,      /* K = 17 */
(PID.TID 0000.0001)                 1.840000000000000E+01,      /* K = 18 */
(PID.TID 0000.0001)                 1.730000000000000E+01,      /* K = 19 */
(PID.TID 0000.0001)                 1.660000000000000E+01,      /* K = 20 */
(PID.TID 0000.0001)                 1.550000000000000E+01,      /* K = 21 */
(PID.TID 0000.0001)                 1.460000000000000E+01,      /* K = 22 */
(PID.TID 0000.0001)                 1.380000000000000E+01,      /* K = 23 */
(PID.TID 0000.0001)                 1.310000000000000E+01,      /* K = 24 */
(PID.TID 0000.0001)                 1.160000000000000E+01,      /* K = 25 */
(PID.TID 0000.0001)                 1.010000000000000E+01,      /* K = 26 */
(PID.TID 0000.0001)                 7.700000000000000E+00,      /* K = 27 */
(PID.TID 0000.0001)                 5.300000000000000E+00,      /* K = 28 */
(PID.TID 0000.0001)                 4.100000000000000E+00,      /* K = 29 */
(PID.TID 0000.0001)     2 @  3.700000000000000E+00,             /* K = 30: 31 */
(PID.TID 0000.0001)                 3.400000000000000E+00,      /* K = 32 */
(PID.TID 0000.0001)                 3.000000000000000E+00,      /* K = 33 */
(PID.TID 0000.0001)                 2.800000000000000E+00,      /* K = 34 */
(PID.TID 0000.0001)                 2.600000000000000E+00       /* K = 35 */
(PID.TID 0000.0001)     ;
(PID.TID 0000.0001) sRef =   /* Reference salinity profile ( psu ) */
(PID.TID 0000.0001)    35 @  3.500000000000000E+01              /* K =  1: 35 */
(PID.TID 0000.0001)     ;
(PID.TID 0000.0001) viscAh  =   /* Lateral eddy viscosity ( m^2/s ) */
(PID.TID 0000.0001)                 0.000000000000000E+00
(PID.TID 0000.0001)     ;
(PID.TID 0000.0001) viscAhMax = /* Maximum lateral eddy viscosity ( m^2/s ) */
(PID.TID 0000.0001)                 1.000000000000000E+21
(PID.TID 0000.0001)     ;
(PID.TID 0000.0001) viscAhGrid = /* Grid dependent lateral eddy viscosity ( non-dim. ) */
(PID.TID 0000.0001)                 0.000000000000000E+00
(PID.TID 0000.0001)     ;
(PID.TID 0000.0001) useFullLeith = /* Use Full Form of Leith Viscosity on/off flag*/
(PID.TID 0000.0001)                   F
(PID.TID 0000.0001)     ;
(PID.TID 0000.0001) useStrainTensionVisc= /* Use StrainTension Form of Viscous Operator flag*/
(PID.TID 0000.0001)                   F
(PID.TID 0000.0001)     ;
(PID.TID 0000.0001) useAreaViscLength = /* Use area for visc length instead of geom. mean*/
(PID.TID 0000.0001)                   F
(PID.TID 0000.0001)     ;
(PID.TID 0000.0001) viscC2leith = /* Leith harmonic visc. factor (on grad(vort),non-dim.) */
(PID.TID 0000.0001)                 0.000000000000000E+00
(PID.TID 0000.0001)     ;
(PID.TID 0000.0001) viscC2leithD = /* Leith harmonic viscosity factor (on grad(div),non-dim.)*/
(PID.TID 0000.0001)                 0.000000000000000E+00
(PID.TID 0000.0001)     ;
(PID.TID 0000.0001) viscC2smag = /* Smagorinsky harmonic viscosity factor (non-dim.) */
(PID.TID 0000.0001)                 0.000000000000000E+00
(PID.TID 0000.0001)     ;
(PID.TID 0000.0001) viscA4  =   /* Lateral biharmonic viscosity ( m^4/s ) */
(PID.TID 0000.0001)                 0.000000000000000E+00
(PID.TID 0000.0001)     ;
(PID.TID 0000.0001) viscA4Max = /* Maximum biharmonic viscosity ( m^2/s ) */
(PID.TID 0000.0001)                 1.000000000000000E+21
(PID.TID 0000.0001)     ;
(PID.TID 0000.0001) viscA4Grid = /* Grid dependent biharmonic viscosity ( non-dim. ) */
(PID.TID 0000.0001)                 0.000000000000000E+00
(PID.TID 0000.0001)     ;
(PID.TID 0000.0001) viscC4leith = /* Leith biharm viscosity factor (on grad(vort), non-dim.)*/
(PID.TID 0000.0001)                 0.000000000000000E+00
(PID.TID 0000.0001)     ;
(PID.TID 0000.0001) viscC4leithD = /* Leith biharm viscosity factor (on grad(div), non-dim.) */
(PID.TID 0000.0001)                 0.000000000000000E+00
(PID.TID 0000.0001)     ;
(PID.TID 0000.0001) viscC4Smag = /* Smagorinsky biharm viscosity factor (non-dim) */
(PID.TID 0000.0001)                 0.000000000000000E+00
(PID.TID 0000.0001)     ;
(PID.TID 0000.0001) no_slip_sides =  /* Viscous BCs: No-slip sides */
(PID.TID 0000.0001)                   F
(PID.TID 0000.0001)     ;
(PID.TID 0000.0001) sideDragFactor = /* side-drag scaling factor (non-dim) */
(PID.TID 0000.0001)                 2.000000000000000E+00
(PID.TID 0000.0001)     ;
(PID.TID 0000.0001) viscArNr = /* vertical profile of vertical viscosity ( m^2/s )*/
(PID.TID 0000.0001)    35 @  0.000000000000000E+00              /* K =  1: 35 */
(PID.TID 0000.0001)     ;
(PID.TID 0000.0001) no_slip_bottom =  /* Viscous BCs: No-slip bottom */
(PID.TID 0000.0001)                   T
(PID.TID 0000.0001)     ;
(PID.TID 0000.0001) bottomDragLinear = /* linear bottom-drag coefficient ( m/s ) */
(PID.TID 0000.0001)                 0.000000000000000E+00
(PID.TID 0000.0001)     ;
(PID.TID 0000.0001) bottomDragQuadratic = /* quadratic bottom-drag coefficient (-) */
(PID.TID 0000.0001)                 0.000000000000000E+00
(PID.TID 0000.0001)     ;
(PID.TID 0000.0001) diffKhT =   /* Laplacian diffusion of heat laterally ( m^2/s ) */
(PID.TID 0000.0001)                 1.000000000000000E+02
(PID.TID 0000.0001)     ;
(PID.TID 0000.0001) diffK4T =   /* Biharmonic diffusion of heat laterally ( m^4/s ) */
(PID.TID 0000.0001)                 0.000000000000000E+00
(PID.TID 0000.0001)     ;
(PID.TID 0000.0001) diffKhS =   /* Laplacian diffusion of salt laterally ( m^2/s ) */
(PID.TID 0000.0001)                 0.000000000000000E+00
(PID.TID 0000.0001)     ;
(PID.TID 0000.0001) diffK4S =   /* Biharmonic diffusion of salt laterally ( m^4/s ) */
(PID.TID 0000.0001)                 0.000000000000000E+00
(PID.TID 0000.0001)     ;
(PID.TID 0000.0001) diffKrNrT = /* vertical profile of vertical diffusion of Temp ( m^2/s )*/
(PID.TID 0000.0001)    35 @  1.000000000000000E-04              /* K =  1: 35 */
(PID.TID 0000.0001)     ;
(PID.TID 0000.0001) diffKrNrS = /* vertical profile of vertical diffusion of Salt ( m^2/s )*/
(PID.TID 0000.0001)    35 @  0.000000000000000E+00              /* K =  1: 35 */
(PID.TID 0000.0001)     ;
(PID.TID 0000.0001) diffKrBL79surf = /* Surface diffusion for Bryan and Lewis 79 ( m^2/s ) */
(PID.TID 0000.0001)                 0.000000000000000E+00
(PID.TID 0000.0001)     ;
(PID.TID 0000.0001) diffKrBL79deep = /* Deep diffusion for Bryan and Lewis 1979 ( m^2/s ) */
(PID.TID 0000.0001)                 0.000000000000000E+00
(PID.TID 0000.0001)     ;
(PID.TID 0000.0001) diffKrBL79scl = /* Depth scale for Bryan and Lewis 1979 ( m ) */
(PID.TID 0000.0001)                 2.000000000000000E+02
(PID.TID 0000.0001)     ;
(PID.TID 0000.0001) diffKrBL79Ho = /* Turning depth for Bryan and Lewis 1979 ( m ) */
(PID.TID 0000.0001)                -2.000000000000000E+03
(PID.TID 0000.0001)     ;
(PID.TID 0000.0001) ivdc_kappa = /* Implicit Vertical Diffusivity for Convection ( m^2/s) */
(PID.TID 0000.0001)                 0.000000000000000E+00
(PID.TID 0000.0001)     ;
(PID.TID 0000.0001) hMixCriteria=  /* Criteria for mixed-layer diagnostic */
(PID.TID 0000.0001)                -8.000000000000000E-01
(PID.TID 0000.0001)     ;
(PID.TID 0000.0001) dRhoSmall =  /* Parameter for mixed-layer diagnostic */
(PID.TID 0000.0001)                 1.000000000000000E-06
(PID.TID 0000.0001)     ;
(PID.TID 0000.0001) hMixSmooth=  /* Smoothing parameter for mixed-layer diagnostic */
(PID.TID 0000.0001)                 0.000000000000000E+00
(PID.TID 0000.0001)     ;
(PID.TID 0000.0001) eosType =  /* Type of Equation of State */
(PID.TID 0000.0001)               'JMD95Z'
(PID.TID 0000.0001)     ;
(PID.TID 0000.0001) celsius2K = /* 0 degree Celsius converted to Kelvin ( K ) */
(PID.TID 0000.0001)                 2.731500000000000E+02
(PID.TID 0000.0001)     ;
(PID.TID 0000.0001) rhoConst  = /* Reference density (Boussinesq)  ( kg/m^3 ) */
(PID.TID 0000.0001)                 9.998000000000000E+02
(PID.TID 0000.0001)     ;
(PID.TID 0000.0001) rhoFacC = /* normalized Reference density @ cell-Center (-) */
(PID.TID 0000.0001)    35 @  1.000000000000000E+00              /* K =  1: 35 */
(PID.TID 0000.0001)     ;
(PID.TID 0000.0001) rhoFacF = /* normalized Reference density @ W-Interface (-) */
(PID.TID 0000.0001)    36 @  1.000000000000000E+00              /* K =  1: 36 */
(PID.TID 0000.0001)     ;
(PID.TID 0000.0001) rhoConstFresh = /* Fresh-water reference density ( kg/m^3 ) */
(PID.TID 0000.0001)                 9.998000000000000E+02
(PID.TID 0000.0001)     ;
(PID.TID 0000.0001) gravity =   /* Gravitational acceleration ( m/s^2 ) */
(PID.TID 0000.0001)                 9.810000000000000E+00
(PID.TID 0000.0001)     ;
(PID.TID 0000.0001) gBaro =   /* Barotropic gravity ( m/s^2 ) */
(PID.TID 0000.0001)                 9.810000000000000E+00
(PID.TID 0000.0001)     ;
(PID.TID 0000.0001) rotationPeriod =   /* Rotation Period ( s ) */
(PID.TID 0000.0001)                 8.616400000000000E+04
(PID.TID 0000.0001)     ;
(PID.TID 0000.0001) omega =   /* Angular velocity ( rad/s ) */
(PID.TID 0000.0001)                 7.292123516990375E-05
(PID.TID 0000.0001)     ;
(PID.TID 0000.0001) f0 =   /* Reference coriolis parameter ( 1/s ) */
(PID.TID 0000.0001)                 1.000000000000000E-04
(PID.TID 0000.0001)     ;
(PID.TID 0000.0001) beta =   /* Beta ( 1/(m.s) ) */
(PID.TID 0000.0001)                 9.999999999999999E-12
(PID.TID 0000.0001)     ;
(PID.TID 0000.0001) fPrime =   /* Second coriolis parameter ( 1/s ) */
(PID.TID 0000.0001)                 0.000000000000000E+00
(PID.TID 0000.0001)     ;
(PID.TID 0000.0001) rigidLid =   /* Rigid lid on/off flag */
(PID.TID 0000.0001)                   T
(PID.TID 0000.0001)     ;
(PID.TID 0000.0001) implicitFreeSurface =   /* Implicit free surface on/off flag */
(PID.TID 0000.0001)                   F
(PID.TID 0000.0001)     ;
(PID.TID 0000.0001) freeSurfFac =   /* Implicit free surface factor */
(PID.TID 0000.0001)                 0.000000000000000E+00
(PID.TID 0000.0001)     ;
(PID.TID 0000.0001) implicSurfPress =  /* Surface Pressure implicit factor (0-1)*/
(PID.TID 0000.0001)                 1.000000000000000E+00
(PID.TID 0000.0001)     ;
(PID.TID 0000.0001) implicDiv2Dflow =  /* Barot. Flow Div. implicit factor (0-1)*/
(PID.TID 0000.0001)                 1.000000000000000E+00
(PID.TID 0000.0001)     ;
(PID.TID 0000.0001) uniformLin_PhiSurf = /* use uniform Bo_surf on/off flag*/
(PID.TID 0000.0001)                   T
(PID.TID 0000.0001)     ;
(PID.TID 0000.0001) uniformFreeSurfLev = /* free-surface level-index is uniform */
(PID.TID 0000.0001)                   T
(PID.TID 0000.0001)     ;
(PID.TID 0000.0001) hFacMin =   /* minimum partial cell factor (hFac) */
(PID.TID 0000.0001)                 1.000000000000000E+00
(PID.TID 0000.0001)     ;
(PID.TID 0000.0001) hFacMinDr = /* minimum partial cell thickness ( m) */
(PID.TID 0000.0001)                 1.000000000000000E+00
(PID.TID 0000.0001)     ;
(PID.TID 0000.0001) exactConserv =  /* Exact Volume Conservation on/off flag*/
(PID.TID 0000.0001)                   F
(PID.TID 0000.0001)     ;
(PID.TID 0000.0001) linFSConserveTr = /* Tracer correction for Lin Free Surface on/off flag*/
(PID.TID 0000.0001)                   F
(PID.TID 0000.0001)     ;
(PID.TID 0000.0001) nonlinFreeSurf = /* Non-linear Free Surf. options (-1,0,1,2,3)*/
(PID.TID 0000.0001)                       0
(PID.TID 0000.0001)      -1,0= Off ; 1,2,3= On, 2=+rescale gU,gV, 3=+update cg2d solv.
(PID.TID 0000.0001)     ;
(PID.TID 0000.0001) hFacInf =   /* lower threshold for hFac (nonlinFreeSurf only)*/
(PID.TID 0000.0001)                 2.000000000000000E-01
(PID.TID 0000.0001)     ;
(PID.TID 0000.0001) hFacSup =   /* upper threshold for hFac (nonlinFreeSurf only)*/
(PID.TID 0000.0001)                 2.000000000000000E+00
(PID.TID 0000.0001)     ;
(PID.TID 0000.0001) select_rStar = /* r* Vertical coord. options (=0 r coord.; >0 uses r*)*/
(PID.TID 0000.0001)                       0
(PID.TID 0000.0001)     ;
(PID.TID 0000.0001) useRealFreshWaterFlux = /* Real Fresh Water Flux on/off flag*/
(PID.TID 0000.0001)                   F
(PID.TID 0000.0001)     ;
(PID.TID 0000.0001) temp_EvPrRn = /* Temp. of Evap/Prec/R (UNSET=use local T)(oC)*/
(PID.TID 0000.0001)                 1.234567000000000E+05
(PID.TID 0000.0001)     ;
(PID.TID 0000.0001) salt_EvPrRn = /* Salin. of Evap/Prec/R (UNSET=use local S)(psu)*/
(PID.TID 0000.0001)                 0.000000000000000E+00
(PID.TID 0000.0001)     ;
(PID.TID 0000.0001) selectAddFluid = /* option for mass source/sink of fluid (=0: off) */
(PID.TID 0000.0001)                       0
(PID.TID 0000.0001)     ;
(PID.TID 0000.0001) temp_addMass = /* Temp. of addMass array (UNSET=use local T)(oC)*/
(PID.TID 0000.0001)                 1.234567000000000E+05
(PID.TID 0000.0001)     ;
(PID.TID 0000.0001) salt_addMass = /* Salin. of addMass array (UNSET=use local S)(psu)*/
(PID.TID 0000.0001)                 0.000000000000000E+00
(PID.TID 0000.0001)     ;
(PID.TID 0000.0001) convertFW2Salt = /* convert F.W. Flux to Salt Flux (-1=use local S)(psu)*/
(PID.TID 0000.0001)                 3.500000000000000E+01
(PID.TID 0000.0001)     ;
(PID.TID 0000.0001) use3Dsolver = /* use 3-D pressure solver on/off flag */
(PID.TID 0000.0001)                   F
(PID.TID 0000.0001)     ;
(PID.TID 0000.0001) nonHydrostatic =  /* Non-Hydrostatic on/off flag */
(PID.TID 0000.0001)                   F
(PID.TID 0000.0001)     ;
(PID.TID 0000.0001) nh_Am2 = /* Non-Hydrostatic terms scaling factor */
(PID.TID 0000.0001)                 1.000000000000000E+00
(PID.TID 0000.0001)     ;
(PID.TID 0000.0001) implicitNHPress = /* Non-Hyd Pressure implicit factor (0-1)*/
(PID.TID 0000.0001)                 1.000000000000000E+00
(PID.TID 0000.0001)     ;
(PID.TID 0000.0001) selectNHfreeSurf = /* Non-Hyd (free-)Surface option */
(PID.TID 0000.0001)                       0
(PID.TID 0000.0001)     ;
(PID.TID 0000.0001) quasiHydrostatic = /* Quasi-Hydrostatic on/off flag */
(PID.TID 0000.0001)                   F
(PID.TID 0000.0001)     ;
(PID.TID 0000.0001) calc_wVelocity = /* vertical velocity calculation on/off flag */
(PID.TID 0000.0001)                   F
(PID.TID 0000.0001)     ;
(PID.TID 0000.0001) momStepping =  /* Momentum equation on/off flag */
(PID.TID 0000.0001)                   F
(PID.TID 0000.0001)     ;
(PID.TID 0000.0001) vectorInvariantMomentum= /* Vector-Invariant Momentum on/off */
(PID.TID 0000.0001)                   F
(PID.TID 0000.0001)     ;
(PID.TID 0000.0001) momAdvection =  /* Momentum advection on/off flag */
(PID.TID 0000.0001)                   F
(PID.TID 0000.0001)     ;
(PID.TID 0000.0001) momViscosity =  /* Momentum viscosity on/off flag */
(PID.TID 0000.0001)                   F
(PID.TID 0000.0001)     ;
(PID.TID 0000.0001) momImplVertAdv= /* Momentum implicit vert. advection on/off*/
(PID.TID 0000.0001)                   F
(PID.TID 0000.0001)     ;
(PID.TID 0000.0001) implicitViscosity = /* Implicit viscosity on/off flag */
(PID.TID 0000.0001)                   F
(PID.TID 0000.0001)     ;
(PID.TID 0000.0001) metricTerms =  /* metric-Terms on/off flag */
(PID.TID 0000.0001)                   T
(PID.TID 0000.0001)     ;
(PID.TID 0000.0001) useNHMTerms = /* Non-Hydrostatic Metric-Terms on/off */
(PID.TID 0000.0001)                   F
(PID.TID 0000.0001)     ;
(PID.TID 0000.0001) selectCoriMap = /* Coriolis Map options (0,1,2,3)*/
(PID.TID 0000.0001)                       2
(PID.TID 0000.0001)     0= f-Plane ; 1= Beta-Plane ; 2= Spherical ; 3= read from file
(PID.TID 0000.0001)     ;
(PID.TID 0000.0001) use3dCoriolis = /* 3-D Coriolis on/off flag */
(PID.TID 0000.0001)                   F
(PID.TID 0000.0001)     ;
(PID.TID 0000.0001) useCoriolis =  /* Coriolis on/off flag */
(PID.TID 0000.0001)                   F
(PID.TID 0000.0001)     ;
(PID.TID 0000.0001) useCDscheme =  /* CD scheme on/off flag */
(PID.TID 0000.0001)                   F
(PID.TID 0000.0001)     ;
(PID.TID 0000.0001) useEnergyConservingCoriolis= /* Flx-Form Coriolis scheme flag */
(PID.TID 0000.0001)                   F
(PID.TID 0000.0001)     ;
(PID.TID 0000.0001) useJamartWetPoints= /* Coriolis WetPoints method flag */
(PID.TID 0000.0001)                   F
(PID.TID 0000.0001)     ;
(PID.TID 0000.0001) useJamartMomAdv= /* V.I Non-linear terms Jamart flag */
(PID.TID 0000.0001)                   F
(PID.TID 0000.0001)     ;
(PID.TID 0000.0001) useAbsVorticity= /* V.I Works with f+zeta in Coriolis */
(PID.TID 0000.0001)                   F
(PID.TID 0000.0001)     ;
(PID.TID 0000.0001) selectVortScheme= /* V.I Scheme selector for Vorticity-Term */
(PID.TID 0000.0001)               123456789
(PID.TID 0000.0001)    = 0 : enstrophy (Shallow-Water Eq.) conserving scheme by Sadourny, JAS 75
(PID.TID 0000.0001)    = 1 : same as 0 with modified hFac
(PID.TID 0000.0001)    = 2 : energy conserving scheme (used by Sadourny in JAS 75 paper)
(PID.TID 0000.0001)    = 3 : energy (general) and enstrophy (2D, nonDiv.) conserving scheme
(PID.TID 0000.0001)          from Sadourny (Burridge & Haseler, ECMWF Rep.4, 1977)
(PID.TID 0000.0001)     ;
(PID.TID 0000.0001) upwindVorticity= /* V.I Upwind bias vorticity flag */
(PID.TID 0000.0001)                   F
(PID.TID 0000.0001)     ;
(PID.TID 0000.0001) highOrderVorticity= /* V.I High order vort. advect. flag */
(PID.TID 0000.0001)                   F
(PID.TID 0000.0001)     ;
(PID.TID 0000.0001) upwindShear= /* V.I Upwind vertical Shear advection flag */
(PID.TID 0000.0001)                   F
(PID.TID 0000.0001)     ;
(PID.TID 0000.0001) selectKEscheme= /* V.I Kinetic Energy scheme selector */
(PID.TID 0000.0001)                       0
(PID.TID 0000.0001)     ;
(PID.TID 0000.0001) momForcing =  /* Momentum forcing on/off flag */
(PID.TID 0000.0001)                   F
(PID.TID 0000.0001)     ;
(PID.TID 0000.0001) momPressureForcing =  /* Momentum pressure term on/off flag */
(PID.TID 0000.0001)                   F
(PID.TID 0000.0001)     ;
(PID.TID 0000.0001) implicitIntGravWave= /* Implicit Internal Gravity Wave flag */
(PID.TID 0000.0001)                   F
(PID.TID 0000.0001)     ;
(PID.TID 0000.0001) staggerTimeStep =    /* Stagger time stepping on/off flag */
(PID.TID 0000.0001)                   F
(PID.TID 0000.0001)     ;
(PID.TID 0000.0001) doResetHFactors = /* reset thickness factors @ each time-step */
(PID.TID 0000.0001)                   F
(PID.TID 0000.0001)     ;
(PID.TID 0000.0001) multiDimAdvection =  /* enable/disable Multi-Dim Advection */
(PID.TID 0000.0001)                   T
(PID.TID 0000.0001)     ;
(PID.TID 0000.0001) useMultiDimAdvec =   /* Multi-Dim Advection is/is-not used */
(PID.TID 0000.0001)                   T
(PID.TID 0000.0001)     ;
(PID.TID 0000.0001) implicitDiffusion = /* Implicit Diffusion on/off flag */
(PID.TID 0000.0001)                   T
(PID.TID 0000.0001)     ;
(PID.TID 0000.0001) tempStepping =  /* Temperature equation on/off flag */
(PID.TID 0000.0001)                   T
(PID.TID 0000.0001)     ;
(PID.TID 0000.0001) tempAdvection = /* Temperature advection on/off flag */
(PID.TID 0000.0001)                   T
(PID.TID 0000.0001)     ;
(PID.TID 0000.0001) tempImplVertAdv = /* Temp. implicit vert. advection on/off */
(PID.TID 0000.0001)                   F
(PID.TID 0000.0001)     ;
(PID.TID 0000.0001) tempForcing  =  /* Temperature forcing on/off flag */
(PID.TID 0000.0001)                   T
(PID.TID 0000.0001)     ;
(PID.TID 0000.0001) doThetaClimRelax = /* apply SST relaxation on/off flag */
(PID.TID 0000.0001)                   T
(PID.TID 0000.0001)     ;
(PID.TID 0000.0001) tempIsActiveTr = /* Temp. is a dynamically Active Tracer */
(PID.TID 0000.0001)                   F
(PID.TID 0000.0001)     ;
(PID.TID 0000.0001) saltStepping =  /* Salinity equation on/off flag */
(PID.TID 0000.0001)                   F
(PID.TID 0000.0001)     ;
(PID.TID 0000.0001) saltAdvection = /* Salinity advection on/off flag */
(PID.TID 0000.0001)                   F
(PID.TID 0000.0001)     ;
(PID.TID 0000.0001) saltImplVertAdv = /* Sali. implicit vert. advection on/off */
(PID.TID 0000.0001)                   F
(PID.TID 0000.0001)     ;
(PID.TID 0000.0001) saltForcing  =  /* Salinity forcing on/off flag */
(PID.TID 0000.0001)                   F
(PID.TID 0000.0001)     ;
(PID.TID 0000.0001) doSaltClimRelax = /* apply SSS relaxation on/off flag */
(PID.TID 0000.0001)                   F
(PID.TID 0000.0001)     ;
(PID.TID 0000.0001) saltIsActiveTr = /* Salt  is a dynamically Active Tracer */
(PID.TID 0000.0001)                   F
(PID.TID 0000.0001)     ;
(PID.TID 0000.0001)  readBinaryPrec = /* Precision used for reading binary files */
(PID.TID 0000.0001)                      32
(PID.TID 0000.0001)     ;
(PID.TID 0000.0001) writeBinaryPrec = /* Precision used for writing binary files */
(PID.TID 0000.0001)                      64
(PID.TID 0000.0001)     ;
(PID.TID 0000.0001)  globalFiles = /* write "global" (=not per tile) files */
(PID.TID 0000.0001)                   F
(PID.TID 0000.0001)     ;
(PID.TID 0000.0001)  useSingleCpuIO = /* only master MPI process does I/O */
(PID.TID 0000.0001)                   T
(PID.TID 0000.0001)     ;
(PID.TID 0000.0001) /* debLev[*]  : level of debug & auxiliary message printing */
(PID.TID 0000.0001) debLevZero =  0 ; /* level of disabled aux. msg printing */
(PID.TID 0000.0001)    debLevA =  1 ; /* level of minimum  aux. msg printing */
(PID.TID 0000.0001)    debLevB =  2 ; /* level of low aux. print (report read-file opening)*/
(PID.TID 0000.0001)    debLevC =  3 ; /* level of moderate debug prt (most pkgs debug msg) */
(PID.TID 0000.0001)    debLevD =  4 ; /* level of enhanced debug prt (add DEBUG_STATS prt) */
(PID.TID 0000.0001)    debLevE =  5 ; /* level of extensive debug printing */
(PID.TID 0000.0001) debugLevel =  /* select debug printing level */
(PID.TID 0000.0001)                       2
(PID.TID 0000.0001)     ;
(PID.TID 0000.0001) //
(PID.TID 0000.0001) // Elliptic solver(s) paramters ( PARM02 in namelist )
(PID.TID 0000.0001) //
(PID.TID 0000.0001) cg2dMaxIters =   /* Upper limit on 2d con. grad iterations  */
(PID.TID 0000.0001)                     300
(PID.TID 0000.0001)     ;
(PID.TID 0000.0001) cg2dChkResFreq =   /* 2d con. grad convergence test frequency */
(PID.TID 0000.0001)                       1
(PID.TID 0000.0001)     ;
(PID.TID 0000.0001) cg2dUseMinResSol= /* use cg2d last-iter(=0) / min-resid.(=1) solution */
(PID.TID 0000.0001)                       0
(PID.TID 0000.0001)     ;
(PID.TID 0000.0001) cg2dTargetResidual =   /* 2d con. grad target residual  */
(PID.TID 0000.0001)                 1.000000000000000E-07
(PID.TID 0000.0001)     ;
(PID.TID 0000.0001) cg2dTargetResWunit =   /* CG2d target residual [W units] */
(PID.TID 0000.0001)                -1.000000000000000E+00
(PID.TID 0000.0001)     ;
(PID.TID 0000.0001) cg2dPreCondFreq =   /* Freq. for updating cg2d preconditioner */
(PID.TID 0000.0001)                       1
(PID.TID 0000.0001)     ;
(PID.TID 0000.0001) useSRCGSolver =  /* use single reduction CG solver(s) */
(PID.TID 0000.0001)                   F
(PID.TID 0000.0001)     ;
(PID.TID 0000.0001) printResidualFreq = /* Freq. for printing CG residual */
(PID.TID 0000.0001)                       0
(PID.TID 0000.0001)     ;
(PID.TID 0000.0001) //
(PID.TID 0000.0001) // Time stepping paramters ( PARM03 in namelist )
(PID.TID 0000.0001) //
(PID.TID 0000.0001) deltaTMom =   /* Momentum equation timestep ( s ) */
(PID.TID 0000.0001)                 1.080000000000000E+04
(PID.TID 0000.0001)     ;
(PID.TID 0000.0001) deltaTFreeSurf = /* FreeSurface equation timestep ( s ) */
(PID.TID 0000.0001)                 1.080000000000000E+04
(PID.TID 0000.0001)     ;
(PID.TID 0000.0001) dTtracerLev =  /* Tracer equation timestep ( s ) */
(PID.TID 0000.0001)    35 @  1.080000000000000E+04              /* K =  1: 35 */
(PID.TID 0000.0001)     ;
(PID.TID 0000.0001) deltaTClock  =   /* Model clock timestep ( s ) */
(PID.TID 0000.0001)                 1.080000000000000E+04
(PID.TID 0000.0001)     ;
(PID.TID 0000.0001) cAdjFreq =   /* Convective adjustment interval ( s ) */
(PID.TID 0000.0001)                 0.000000000000000E+00
(PID.TID 0000.0001)     ;
(PID.TID 0000.0001) momForcingOutAB = /* =1: take Momentum Forcing out of Adams-Bash. stepping */
(PID.TID 0000.0001)                       0
(PID.TID 0000.0001)     ;
(PID.TID 0000.0001) tracForcingOutAB = /* =1: take T,S,pTr Forcing out of Adams-Bash. stepping */
(PID.TID 0000.0001)                       0
(PID.TID 0000.0001)     ;
(PID.TID 0000.0001) momDissip_In_AB = /* put Dissipation Tendency in Adams-Bash. stepping */
(PID.TID 0000.0001)                   T
(PID.TID 0000.0001)     ;
(PID.TID 0000.0001) doAB_onGtGs = /* apply AB on Tendencies (rather than on T,S)*/
(PID.TID 0000.0001)                   T
(PID.TID 0000.0001)     ;
(PID.TID 0000.0001) abEps =   /* Adams-Bashforth-2 stabilizing weight */
(PID.TID 0000.0001)                 1.000000000000000E-01
(PID.TID 0000.0001)     ;
(PID.TID 0000.0001) pickupStrictlyMatch= /* stop if pickup do not strictly match */
(PID.TID 0000.0001)                   T
(PID.TID 0000.0001)     ;
(PID.TID 0000.0001) nIter0   =   /* Run starting timestep number */
(PID.TID 0000.0001)                       0
(PID.TID 0000.0001)     ;
(PID.TID 0000.0001) nTimeSteps = /* Number of timesteps */
(PID.TID 0000.0001)                       4
(PID.TID 0000.0001)     ;
(PID.TID 0000.0001) nEndIter =   /* Run ending timestep number */
(PID.TID 0000.0001)                       4
(PID.TID 0000.0001)     ;
(PID.TID 0000.0001) baseTime =   /* Model base time ( s ) */
(PID.TID 0000.0001)                 0.000000000000000E+00
(PID.TID 0000.0001)     ;
(PID.TID 0000.0001) startTime =  /* Run start time ( s ) */
(PID.TID 0000.0001)                 0.000000000000000E+00
(PID.TID 0000.0001)     ;
(PID.TID 0000.0001) endTime  =   /* Integration ending time ( s ) */
(PID.TID 0000.0001)                 4.320000000000000E+04
(PID.TID 0000.0001)     ;
(PID.TID 0000.0001) pChkPtFreq = /* Permanent restart/pickup file interval ( s ) */
(PID.TID 0000.0001)                 3.110400000000000E+07
(PID.TID 0000.0001)     ;
(PID.TID 0000.0001) chkPtFreq  = /* Rolling restart/pickup file interval ( s ) */
(PID.TID 0000.0001)                 3.110400000000000E+07
(PID.TID 0000.0001)     ;
(PID.TID 0000.0001) pickup_write_mdsio =   /* Model IO flag. */
(PID.TID 0000.0001)                   T
(PID.TID 0000.0001)     ;
(PID.TID 0000.0001) pickup_read_mdsio =   /* Model IO flag. */
(PID.TID 0000.0001)                   T
(PID.TID 0000.0001)     ;
(PID.TID 0000.0001) pickup_write_mnc =   /* Model IO flag. */
(PID.TID 0000.0001)                   F
(PID.TID 0000.0001)     ;
(PID.TID 0000.0001) pickup_read_mnc =   /* Model IO flag. */
(PID.TID 0000.0001)                   F
(PID.TID 0000.0001)     ;
(PID.TID 0000.0001) pickup_write_immed =   /* Model IO flag. */
(PID.TID 0000.0001)                   F
(PID.TID 0000.0001)     ;
(PID.TID 0000.0001) writePickupAtEnd =   /* Model IO flag. */
(PID.TID 0000.0001)                   T
(PID.TID 0000.0001)     ;
(PID.TID 0000.0001) dumpFreq =   /* Model state write out interval ( s ). */
(PID.TID 0000.0001)                 1.080000000000000E+04
(PID.TID 0000.0001)     ;
(PID.TID 0000.0001) dumpInitAndLast= /* write out Initial & Last iter. model state */
(PID.TID 0000.0001)                   T
(PID.TID 0000.0001)     ;
(PID.TID 0000.0001) snapshot_mdsio =   /* Model IO flag. */
(PID.TID 0000.0001)                   F
(PID.TID 0000.0001)     ;
(PID.TID 0000.0001) snapshot_mnc =   /* Model IO flag. */
(PID.TID 0000.0001)                   T
(PID.TID 0000.0001)     ;
(PID.TID 0000.0001) monitorFreq =   /* Monitor output interval ( s ). */
(PID.TID 0000.0001)                 1.000000000000000E+00
(PID.TID 0000.0001)     ;
(PID.TID 0000.0001) monitorSelect = /* select group of variables to monitor */
(PID.TID 0000.0001)                       3
(PID.TID 0000.0001)     ;
(PID.TID 0000.0001) monitor_stdio =   /* Model IO flag. */
(PID.TID 0000.0001)                   T
(PID.TID 0000.0001)     ;
(PID.TID 0000.0001) monitor_mnc =   /* Model IO flag. */
(PID.TID 0000.0001)                   F
(PID.TID 0000.0001)     ;
(PID.TID 0000.0001) externForcingPeriod =   /* forcing period (s) */
(PID.TID 0000.0001)                 2.592000000000000E+06
(PID.TID 0000.0001)     ;
(PID.TID 0000.0001) externForcingCycle =   /* period of the cyle (s). */
(PID.TID 0000.0001)                 3.110400000000000E+07
(PID.TID 0000.0001)     ;
(PID.TID 0000.0001) tauThetaClimRelax =   /* relaxation time scale (s) */
(PID.TID 0000.0001)                 2.592000000000000E+05
(PID.TID 0000.0001)     ;
(PID.TID 0000.0001) tauSaltClimRelax =   /* relaxation time scale (s) */
(PID.TID 0000.0001)                 0.000000000000000E+00
(PID.TID 0000.0001)     ;
(PID.TID 0000.0001) latBandClimRelax =   /* max. Lat. where relaxation */
(PID.TID 0000.0001)                 1.800000000000000E+02
(PID.TID 0000.0001)     ;
(PID.TID 0000.0001) //
(PID.TID 0000.0001) // Gridding paramters ( PARM04 in namelist )
(PID.TID 0000.0001) //
(PID.TID 0000.0001) usingCartesianGrid = /* Cartesian coordinates flag ( True/False ) */
(PID.TID 0000.0001)                   F
(PID.TID 0000.0001)     ;
(PID.TID 0000.0001) usingCylindricalGrid = /* Cylindrical coordinates flag ( True/False ) */
(PID.TID 0000.0001)                   F
(PID.TID 0000.0001)     ;
(PID.TID 0000.0001) usingSphericalPolarGrid = /* Spherical coordinates flag ( True/False ) */
(PID.TID 0000.0001)                   T
(PID.TID 0000.0001)     ;
(PID.TID 0000.0001) usingCurvilinearGrid = /* Curvilinear coordinates flag ( True/False ) */
(PID.TID 0000.0001)                   F
(PID.TID 0000.0001)     ;
(PID.TID 0000.0001) selectSigmaCoord = /* Hybrid-Sigma Vert. Coordinate option */
(PID.TID 0000.0001)                       0
(PID.TID 0000.0001)     ;
(PID.TID 0000.0001) Ro_SeaLevel = /* r(1) ( units of r ==  m ) */
(PID.TID 0000.0001)                 0.000000000000000E+00
(PID.TID 0000.0001)     ;
(PID.TID 0000.0001) rSigmaBnd = /* r/sigma transition ( units of r ==  m ) */
(PID.TID 0000.0001)                 1.234567000000000E+05
(PID.TID 0000.0001)     ;
(PID.TID 0000.0001) rkSign =   /* index orientation relative to vertical coordinate */
(PID.TID 0000.0001)                -1.000000000000000E+00
(PID.TID 0000.0001)     ;
(PID.TID 0000.0001) gravitySign = /* gravity orientation relative to vertical coordinate */
(PID.TID 0000.0001)                -1.000000000000000E+00
(PID.TID 0000.0001)     ;
(PID.TID 0000.0001) mass2rUnit = /* convert mass per unit area [kg/m2] to r-units [m] */
(PID.TID 0000.0001)                 1.000200040008002E-03
(PID.TID 0000.0001)     ;
(PID.TID 0000.0001) rUnit2mass = /* convert r-units [m] to mass per unit area [kg/m2] */
(PID.TID 0000.0001)                 9.998000000000000E+02
(PID.TID 0000.0001)     ;
(PID.TID 0000.0001) drC =   /* C spacing ( units of r ) */
(PID.TID 0000.0001)                 5.000000000000000E+00,      /* K =  1 */
(PID.TID 0000.0001)    13 @  1.000000000000000E+01,             /* K =  2: 14 */
(PID.TID 0000.0001)                 1.250000000000000E+01,      /* K = 15 */
(PID.TID 0000.0001)     4 @  1.500000000000000E+01,             /* K = 16: 19 */
(PID.TID 0000.0001)                 1.750000000000000E+01,      /* K = 20 */
(PID.TID 0000.0001)     3 @  2.000000000000000E+01,             /* K = 21: 23 */
(PID.TID 0000.0001)                 3.500000000000000E+01,      /* K = 24 */
(PID.TID 0000.0001)                 5.000000000000000E+01,      /* K = 25 */
(PID.TID 0000.0001)                 7.500000000000000E+01,      /* K = 26 */
(PID.TID 0000.0001)                 1.250000000000000E+02,      /* K = 27 */
(PID.TID 0000.0001)                 1.500000000000000E+02,      /* K = 28 */
(PID.TID 0000.0001)                 1.750000000000000E+02,      /* K = 29 */
(PID.TID 0000.0001)                 2.500000000000000E+02,      /* K = 30 */
(PID.TID 0000.0001)                 3.500000000000000E+02,      /* K = 31 */
(PID.TID 0000.0001)     2 @  4.000000000000000E+02,             /* K = 32: 33 */
(PID.TID 0000.0001)                 4.500000000000000E+02,      /* K = 34 */
(PID.TID 0000.0001)                 5.000000000000000E+02       /* K = 35 */
(PID.TID 0000.0001)     ;
(PID.TID 0000.0001) drF =   /* W spacing ( units of r ) */
(PID.TID 0000.0001)    14 @  1.000000000000000E+01,             /* K =  1: 14 */
(PID.TID 0000.0001)     5 @  1.500000000000000E+01,             /* K = 15: 19 */
(PID.TID 0000.0001)     4 @  2.000000000000000E+01,             /* K = 20: 23 */
(PID.TID 0000.0001)     2 @  5.000000000000000E+01,             /* K = 24: 25 */
(PID.TID 0000.0001)                 1.000000000000000E+02,      /* K = 26 */
(PID.TID 0000.0001)     2 @  1.500000000000000E+02,             /* K = 27: 28 */
(PID.TID 0000.0001)                 2.000000000000000E+02,      /* K = 29 */
(PID.TID 0000.0001)                 3.000000000000000E+02,      /* K = 30 */
(PID.TID 0000.0001)     3 @  4.000000000000000E+02,             /* K = 31: 33 */
(PID.TID 0000.0001)     2 @  5.000000000000000E+02              /* K = 34: 35 */
(PID.TID 0000.0001)     ;
(PID.TID 0000.0001) delX = /* U spacing ( m - cartesian, degrees - spherical ) */
(PID.TID 0000.0001)                 1.000000000000000E+00       /* I =  1 */
(PID.TID 0000.0001)     ;
(PID.TID 0000.0001) delY = /* V spacing ( m - cartesian, degrees - spherical ) */
(PID.TID 0000.0001)                 1.000000000000000E+00       /* J =  1 */
(PID.TID 0000.0001)     ;
(PID.TID 0000.0001) xgOrigin = /* X-axis origin of West  edge (cartesian: m, lat-lon: deg) */
(PID.TID 0000.0001)                 3.350000000000000E+02
(PID.TID 0000.0001)     ;
(PID.TID 0000.0001) ygOrigin = /* Y-axis origin of South edge (cartesian: m, lat-lon: deg) */
(PID.TID 0000.0001)                -1.800000000000000E+01
(PID.TID 0000.0001)     ;
(PID.TID 0000.0001) rSphere =  /* Radius ( ignored - cartesian, m - spherical ) */
(PID.TID 0000.0001)                 6.370000000000000E+06
(PID.TID 0000.0001)     ;
(PID.TID 0000.0001) deepAtmosphere = /* Deep/Shallow Atmosphere flag (True/False) */
(PID.TID 0000.0001)                   F
(PID.TID 0000.0001)     ;
(PID.TID 0000.0001) xC =  /* xC(:,1,:,1) : P-point X coord ( deg. or m if cartesian) */
(PID.TID 0000.0001)                 3.355000000000000E+02       /* I =  1 */
(PID.TID 0000.0001)     ;
(PID.TID 0000.0001) yC =  /* yC(1,:,1,:) : P-point Y coord ( deg. or m if cartesian) */
(PID.TID 0000.0001)                -1.750000000000000E+01       /* J =  1 */
(PID.TID 0000.0001)     ;
(PID.TID 0000.0001) rcoord = /* P-point R coordinate (  units of r ) */
(PID.TID 0000.0001)                -5.000000000000000E+00,      /* K =  1 */
(PID.TID 0000.0001)                -1.500000000000000E+01,      /* K =  2 */
(PID.TID 0000.0001)                -2.500000000000000E+01,      /* K =  3 */
(PID.TID 0000.0001)                -3.500000000000000E+01,      /* K =  4 */
(PID.TID 0000.0001)                -4.500000000000000E+01,      /* K =  5 */
(PID.TID 0000.0001)                -5.500000000000000E+01,      /* K =  6 */
(PID.TID 0000.0001)                -6.500000000000000E+01,      /* K =  7 */
(PID.TID 0000.0001)                -7.500000000000000E+01,      /* K =  8 */
(PID.TID 0000.0001)                -8.500000000000000E+01,      /* K =  9 */
(PID.TID 0000.0001)                -9.500000000000000E+01,      /* K = 10 */
(PID.TID 0000.0001)                -1.050000000000000E+02,      /* K = 11 */
(PID.TID 0000.0001)                -1.150000000000000E+02,      /* K = 12 */
(PID.TID 0000.0001)                -1.250000000000000E+02,      /* K = 13 */
(PID.TID 0000.0001)                -1.350000000000000E+02,      /* K = 14 */
(PID.TID 0000.0001)                -1.475000000000000E+02,      /* K = 15 */
(PID.TID 0000.0001)                -1.625000000000000E+02,      /* K = 16 */
(PID.TID 0000.0001)                -1.775000000000000E+02,      /* K = 17 */
(PID.TID 0000.0001)                -1.925000000000000E+02,      /* K = 18 */
(PID.TID 0000.0001)                -2.075000000000000E+02,      /* K = 19 */
(PID.TID 0000.0001)                -2.250000000000000E+02,      /* K = 20 */
(PID.TID 0000.0001)                -2.450000000000000E+02,      /* K = 21 */
(PID.TID 0000.0001)                -2.650000000000000E+02,      /* K = 22 */
(PID.TID 0000.0001)                -2.850000000000000E+02,      /* K = 23 */
(PID.TID 0000.0001)                -3.200000000000000E+02,      /* K = 24 */
(PID.TID 0000.0001)                -3.700000000000000E+02,      /* K = 25 */
(PID.TID 0000.0001)                -4.450000000000000E+02,      /* K = 26 */
(PID.TID 0000.0001)                -5.700000000000000E+02,      /* K = 27 */
(PID.TID 0000.0001)                -7.200000000000000E+02,      /* K = 28 */
(PID.TID 0000.0001)                -8.950000000000000E+02,      /* K = 29 */
(PID.TID 0000.0001)                -1.145000000000000E+03,      /* K = 30 */
(PID.TID 0000.0001)                -1.495000000000000E+03,      /* K = 31 */
(PID.TID 0000.0001)                -1.895000000000000E+03,      /* K = 32 */
(PID.TID 0000.0001)                -2.295000000000000E+03,      /* K = 33 */
(PID.TID 0000.0001)                -2.745000000000000E+03,      /* K = 34 */
(PID.TID 0000.0001)                -3.245000000000000E+03       /* K = 35 */
(PID.TID 0000.0001)     ;
(PID.TID 0000.0001) rF =   /* W-Interf. R coordinate (  units of r ) */
(PID.TID 0000.0001)                 0.000000000000000E+00,      /* K =  1 */
(PID.TID 0000.0001)                -1.000000000000000E+01,      /* K =  2 */
(PID.TID 0000.0001)                -2.000000000000000E+01,      /* K =  3 */
(PID.TID 0000.0001)                -3.000000000000000E+01,      /* K =  4 */
(PID.TID 0000.0001)                -4.000000000000000E+01,      /* K =  5 */
(PID.TID 0000.0001)                -5.000000000000000E+01,      /* K =  6 */
(PID.TID 0000.0001)                -6.000000000000000E+01,      /* K =  7 */
(PID.TID 0000.0001)                -7.000000000000000E+01,      /* K =  8 */
(PID.TID 0000.0001)                -8.000000000000000E+01,      /* K =  9 */
(PID.TID 0000.0001)                -9.000000000000000E+01,      /* K = 10 */
(PID.TID 0000.0001)                -1.000000000000000E+02,      /* K = 11 */
(PID.TID 0000.0001)                -1.100000000000000E+02,      /* K = 12 */
(PID.TID 0000.0001)                -1.200000000000000E+02,      /* K = 13 */
(PID.TID 0000.0001)                -1.300000000000000E+02,      /* K = 14 */
(PID.TID 0000.0001)                -1.400000000000000E+02,      /* K = 15 */
(PID.TID 0000.0001)                -1.550000000000000E+02,      /* K = 16 */
(PID.TID 0000.0001)                -1.700000000000000E+02,      /* K = 17 */
(PID.TID 0000.0001)                -1.850000000000000E+02,      /* K = 18 */
(PID.TID 0000.0001)                -2.000000000000000E+02,      /* K = 19 */
(PID.TID 0000.0001)                -2.150000000000000E+02,      /* K = 20 */
(PID.TID 0000.0001)                -2.350000000000000E+02,      /* K = 21 */
(PID.TID 0000.0001)                -2.550000000000000E+02,      /* K = 22 */
(PID.TID 0000.0001)                -2.750000000000000E+02,      /* K = 23 */
(PID.TID 0000.0001)                -2.950000000000000E+02,      /* K = 24 */
(PID.TID 0000.0001)                -3.450000000000000E+02,      /* K = 25 */
(PID.TID 0000.0001)                -3.950000000000000E+02,      /* K = 26 */
(PID.TID 0000.0001)                -4.950000000000000E+02,      /* K = 27 */
(PID.TID 0000.0001)                -6.450000000000000E+02,      /* K = 28 */
(PID.TID 0000.0001)                -7.950000000000000E+02,      /* K = 29 */
(PID.TID 0000.0001)                -9.950000000000000E+02,      /* K = 30 */
(PID.TID 0000.0001)                -1.295000000000000E+03,      /* K = 31 */
(PID.TID 0000.0001)                -1.695000000000000E+03,      /* K = 32 */
(PID.TID 0000.0001)                -2.095000000000000E+03,      /* K = 33 */
(PID.TID 0000.0001)                -2.495000000000000E+03,      /* K = 34 */
(PID.TID 0000.0001)                -2.995000000000000E+03,      /* K = 35 */
(PID.TID 0000.0001)                -3.495000000000000E+03       /* K = 36 */
(PID.TID 0000.0001)     ;
(PID.TID 0000.0001) deepFacC = /* deep-model grid factor @ cell-Center (-) */
(PID.TID 0000.0001)    35 @  1.000000000000000E+00              /* K =  1: 35 */
(PID.TID 0000.0001)     ;
(PID.TID 0000.0001) deepFacF = /* deep-model grid factor @ W-Interface (-) */
(PID.TID 0000.0001)    36 @  1.000000000000000E+00              /* K =  1: 36 */
(PID.TID 0000.0001)     ;
(PID.TID 0000.0001) rVel2wUnit = /* convert units: rVel -> wSpeed (=1 if z-coord)*/
(PID.TID 0000.0001)    36 @  1.000000000000000E+00              /* K =  1: 36 */
(PID.TID 0000.0001)     ;
(PID.TID 0000.0001) wUnit2rVel = /* convert units: wSpeed -> rVel (=1 if z-coord)*/
(PID.TID 0000.0001)    36 @  1.000000000000000E+00              /* K =  1: 36 */
(PID.TID 0000.0001)     ;
(PID.TID 0000.0001) dBdrRef = /* Vertical grad. of reference buoyancy [(m/s/r)^2] */
(PID.TID 0000.0001)                 0.000000000000000E+00,      /* K =  1 */
(PID.TID 0000.0001)                 1.232578190459821E-04,      /* K =  2 */
(PID.TID 0000.0001)                 3.063957957303617E-05,      /* K =  3 */
(PID.TID 0000.0001)                 1.521320422054373E-04,      /* K =  4 */
(PID.TID 0000.0001)                 3.021271930223580E-05,      /* K =  5 */
(PID.TID 0000.0001)                 1.499903428890670E-04,      /* K =  6 */
(PID.TID 0000.0001)                 1.186737265074332E-04,      /* K =  7 */
(PID.TID 0000.0001)                 1.466841384627423E-04,      /* K =  8 */
(PID.TID 0000.0001)                 8.712618931102987E-05,      /* K =  9 */
(PID.TID 0000.0001)                 1.151380441308261E-04,      /* K = 10 */
(PID.TID 0000.0001)                 5.712979717883684E-05,      /* K = 11 */
(PID.TID 0000.0001)                 8.515049872565506E-05,      /* K = 12 */
(PID.TID 0000.0001)                 8.448721842774896E-05,      /* K = 13 */
(PID.TID 0000.0001)                 1.116043428725511E-04,      /* K = 14 */
(PID.TID 0000.0001)                 1.102373809396796E-04,      /* K = 15 */
(PID.TID 0000.0001)                 1.798828639202717E-04,      /* K = 16 */
(PID.TID 0000.0001)                 1.918102676980872E-04,      /* K = 17 */
(PID.TID 0000.0001)                 1.853506120896664E-04,      /* K = 18 */
(PID.TID 0000.0001)                 1.787791674911888E-04,      /* K = 19 */
(PID.TID 0000.0001)                 9.455522998141848E-05,      /* K = 20 */
(PID.TID 0000.0001)                 1.259231836379978E-04,      /* K = 21 */
(PID.TID 0000.0001)                 9.923620256554768E-05,      /* K = 22 */
(PID.TID 0000.0001)                 8.531935398693722E-05,      /* K = 23 */
(PID.TID 0000.0001)                 4.137475825384700E-05,      /* K = 24 */
(PID.TID 0000.0001)                 5.930109718499171E-05,      /* K = 25 */
(PID.TID 0000.0001)                 3.689739454308316E-05,      /* K = 26 */
(PID.TID 0000.0001)                 3.215311288275425E-05,      /* K = 27 */
(PID.TID 0000.0001)                 2.340106578013931E-05,      /* K = 28 */
(PID.TID 0000.0001)                 8.957465806881803E-06,      /* K = 29 */
(PID.TID 0000.0001)                 2.029141226789735E-06,      /* K = 30 */
(PID.TID 0000.0001)                 0.000000000000000E+00,      /* K = 31 */
(PID.TID 0000.0001)                 1.052869956707729E-06,      /* K = 32 */
(PID.TID 0000.0001)                 1.465965950004292E-06,      /* K = 33 */
(PID.TID 0000.0001)                 6.817081889333135E-07,      /* K = 34 */
(PID.TID 0000.0001)                 6.544800624285541E-07       /* K = 35 */
(PID.TID 0000.0001)     ;
(PID.TID 0000.0001) rotateGrid = /* use rotated grid ( True/False ) */
(PID.TID 0000.0001)                   F
(PID.TID 0000.0001)     ;
(PID.TID 0000.0001) phiEuler = /* Euler angle, rotation about original z-coordinate [rad] */
(PID.TID 0000.0001)                 0.000000000000000E+00
(PID.TID 0000.0001)     ;
(PID.TID 0000.0001) thetaEuler = /* Euler angle, rotation about new x-coordinate [rad] */
(PID.TID 0000.0001)                 0.000000000000000E+00
(PID.TID 0000.0001)     ;
(PID.TID 0000.0001) psiEuler = /* Euler angle, rotation about new z-coordinate [rad] */
(PID.TID 0000.0001)                 0.000000000000000E+00
(PID.TID 0000.0001)     ;
(PID.TID 0000.0001) dxF =  /* dxF(:,1,:,1) ( units: m ) */
(PID.TID 0000.0001)                 1.060318408771987E+05       /* I =  1 */
(PID.TID 0000.0001)     ;
(PID.TID 0000.0001) dxF =  /* dxF(1,:,1,:) ( units: m ) */
(PID.TID 0000.0001)                 1.060318408771987E+05       /* J =  1 */
(PID.TID 0000.0001)     ;
(PID.TID 0000.0001) dyF =  /* dyF(:,1,:,1) ( units: m ) */
(PID.TID 0000.0001)                 1.111774733520388E+05       /* I =  1 */
(PID.TID 0000.0001)     ;
(PID.TID 0000.0001) dyF =  /* dyF(1,:,1,:) ( units: m ) */
(PID.TID 0000.0001)                 1.111774733520388E+05       /* J =  1 */
(PID.TID 0000.0001)     ;
(PID.TID 0000.0001) dxG =  /* dxG(:,1,:,1) ( units: m ) */
(PID.TID 0000.0001)                 1.057360604966873E+05       /* I =  1 */
(PID.TID 0000.0001)     ;
(PID.TID 0000.0001) dxG =  /* dxG(1,:,1,:) ( units: m ) */
(PID.TID 0000.0001)                 1.057360604966873E+05       /* J =  1 */
(PID.TID 0000.0001)     ;
(PID.TID 0000.0001) dyG =  /* dyG(:,1,:,1) ( units: m ) */
(PID.TID 0000.0001)                 1.111774733520388E+05       /* I =  1 */
(PID.TID 0000.0001)     ;
(PID.TID 0000.0001) dyG =  /* dyG(1,:,1,:) ( units: m ) */
(PID.TID 0000.0001)                 1.111774733520388E+05       /* J =  1 */
(PID.TID 0000.0001)     ;
(PID.TID 0000.0001) dxC =  /* dxC(:,1,:,1) ( units: m ) */
(PID.TID 0000.0001)                 1.060318408771987E+05       /* I =  1 */
(PID.TID 0000.0001)     ;
(PID.TID 0000.0001) dxC =  /* dxC(1,:,1,:) ( units: m ) */
(PID.TID 0000.0001)                 1.060318408771987E+05       /* J =  1 */
(PID.TID 0000.0001)     ;
(PID.TID 0000.0001) dyC =  /* dyC(:,1,:,1) ( units: m ) */
(PID.TID 0000.0001)                 1.111774733520388E+05       /* I =  1 */
(PID.TID 0000.0001)     ;
(PID.TID 0000.0001) dyC =  /* dyC(1,:,1,:) ( units: m ) */
(PID.TID 0000.0001)                 1.111774733520388E+05       /* J =  1 */
(PID.TID 0000.0001)     ;
(PID.TID 0000.0001) dxV =  /* dxV(:,1,:,1) ( units: m ) */
(PID.TID 0000.0001)                 1.057360604966873E+05       /* I =  1 */
(PID.TID 0000.0001)     ;
(PID.TID 0000.0001) dxV =  /* dxV(1,:,1,:) ( units: m ) */
(PID.TID 0000.0001)                 1.057360604966873E+05       /* J =  1 */
(PID.TID 0000.0001)     ;
(PID.TID 0000.0001) dyU =  /* dyU(:,1,:,1) ( units: m ) */
(PID.TID 0000.0001)                 1.111774733520388E+05       /* I =  1 */
(PID.TID 0000.0001)     ;
(PID.TID 0000.0001) dyU =  /* dyU(1,:,1,:) ( units: m ) */
(PID.TID 0000.0001)                 1.111774733520388E+05       /* J =  1 */
(PID.TID 0000.0001)     ;
(PID.TID 0000.0001) rA  =  /* rA (:,1,:,1) ( units: m^2 ) */
(PID.TID 0000.0001)                 1.178820254176956E+10       /* I =  1 */
(PID.TID 0000.0001)     ;
(PID.TID 0000.0001) rA  =  /* rA (1,:,1,:) ( units: m^2 ) */
(PID.TID 0000.0001)                 1.178820254176956E+10       /* J =  1 */
(PID.TID 0000.0001)     ;
(PID.TID 0000.0001) rAw =  /* rAw(:,1,:,1) ( units: m^2 ) */
(PID.TID 0000.0001)                 1.178820254176956E+10       /* I =  1 */
(PID.TID 0000.0001)     ;
(PID.TID 0000.0001) rAw =  /* rAw(1,:,1,:) ( units: m^2 ) */
(PID.TID 0000.0001)                 1.178820254176956E+10       /* J =  1 */
(PID.TID 0000.0001)     ;
(PID.TID 0000.0001) rAs =  /* rAs(:,1,:,1) ( units: m^2 ) */
(PID.TID 0000.0001)                 1.175531884377377E+10       /* I =  1 */
(PID.TID 0000.0001)     ;
(PID.TID 0000.0001) rAs =  /* rAs(1,:,1,:) ( units: m^2 ) */
(PID.TID 0000.0001)                 1.175531884377377E+10       /* J =  1 */
(PID.TID 0000.0001)     ;
(PID.TID 0000.0001) globalArea = /* Integrated horizontal Area (m^2) */
(PID.TID 0000.0001)                 1.178820254176956E+10
(PID.TID 0000.0001)     ;
(PID.TID 0000.0001) // =======================================================
(PID.TID 0000.0001) // End of Model config. summary
(PID.TID 0000.0001) // =======================================================
(PID.TID 0000.0001) 
(PID.TID 0000.0001) == Packages configuration : Check & print summary ==
(PID.TID 0000.0001) 
(PID.TID 0000.0001) KPP_CHECK: #define ALLOW_KPP
(PID.TID 0000.0001) PTRACERS_CHECK: #define ALLOW_PTRACERS
(PID.TID 0000.0001) PTRACERS_CHECK: updated GAD_OlMinSize=  2  0  1
(PID.TID 0000.0001) // ===================================
(PID.TID 0000.0001) // PTRACERS parameters
(PID.TID 0000.0001) // ===================================
(PID.TID 0000.0001) PTRACERS_numInUse = /* number of tracers */
(PID.TID 0000.0001)                      80
(PID.TID 0000.0001)     ;
(PID.TID 0000.0001) PTRACERS_Iter0 = /* timestep number when tracers are initialized */
(PID.TID 0000.0001)                       0
(PID.TID 0000.0001)     ;
(PID.TID 0000.0001) PTRACERS_startAllTrc =/* all tracers start @ startTime */
(PID.TID 0000.0001)                   T
(PID.TID 0000.0001)     ;
(PID.TID 0000.0001) PTRACERS_addSrelax2EmP =/* add Salt relaxation to EmP */
(PID.TID 0000.0001)                   F
(PID.TID 0000.0001)     ;
(PID.TID 0000.0001) PTRACERS_dTLev =   /* Ptracer timestep ( s ) */
(PID.TID 0000.0001)    35 @  1.080000000000000E+04              /* K =  1: 35 */
(PID.TID 0000.0001)     ;
(PID.TID 0000.0001) PTRACERS_dumpFreq = /* Frequency^-1 for snapshot output (s) */
(PID.TID 0000.0001)                 1.080000000000000E+04
(PID.TID 0000.0001)     ;
(PID.TID 0000.0001) PTRACERS_taveFreq = /* Frequency^-1 for time-Aver. output (s) */
(PID.TID 0000.0001)                 8.640000000000000E+04
(PID.TID 0000.0001)     ;
(PID.TID 0000.0001) PTRACERS_useRecords = /* all tracers in 1 file */
(PID.TID 0000.0001)                   F
(PID.TID 0000.0001)     ;
(PID.TID 0000.0001) PTRACERS_timeave_mnc = /* use MNC for Tave output */
(PID.TID 0000.0001)                   T
(PID.TID 0000.0001)     ;
(PID.TID 0000.0001) PTRACERS_snapshot_mnc = /* use MNC for snapshot output */
(PID.TID 0000.0001)                   T
(PID.TID 0000.0001)     ;
(PID.TID 0000.0001) PTRACERS_pickup_write_mnc = /* use MNC for writing pickups */
(PID.TID 0000.0001)                   F
(PID.TID 0000.0001)     ;
(PID.TID 0000.0001) PTRACERS_pickup_read_mnc = /* use MNC for reading pickups */
(PID.TID 0000.0001)                   F
(PID.TID 0000.0001)     ;
(PID.TID 0000.0001)  -----------------------------------
(PID.TID 0000.0001)  tracer number :    1
(PID.TID 0000.0001) PTRACERS_names = /* Tracer short name */
(PID.TID 0000.0001)               'DIC'
(PID.TID 0000.0001)     ;
(PID.TID 0000.0001) PTRACERS_long_names = /* Tracer long name */
(PID.TID 0000.0001)               ''
(PID.TID 0000.0001)     ;
(PID.TID 0000.0001) PTRACERS_ioLabel = /* tracer IO Label */
(PID.TID 0000.0001)               '01'
(PID.TID 0000.0001)     ;
(PID.TID 0000.0001) PTRACERS_advScheme = /* Advection Scheme */
(PID.TID 0000.0001)                      33
(PID.TID 0000.0001)     ;
(PID.TID 0000.0001) PTRACERS_SOM_Advection = /* tracer uses SOM advection scheme */
(PID.TID 0000.0001)                   F
(PID.TID 0000.0001)     ;
(PID.TID 0000.0001) PTRACERS_ImplVertAdv = /* implicit vert. advection flag */
(PID.TID 0000.0001)                   F
(PID.TID 0000.0001)     ;
(PID.TID 0000.0001) PTRACERS_diffKh = /* Laplacian Diffusivity */
(PID.TID 0000.0001)                 0.000000000000000E+00
(PID.TID 0000.0001)     ;
(PID.TID 0000.0001) PTRACERS_diffK4 = /* Biharmonic Diffusivity */
(PID.TID 0000.0001)                 0.000000000000000E+00
(PID.TID 0000.0001)     ;
(PID.TID 0000.0001) PTRACERS_diffKrNr = /* Vertical Diffusivity */
(PID.TID 0000.0001)    35 @  1.000000000000000E-05              /* K =  1: 35 */
(PID.TID 0000.0001)     ;
(PID.TID 0000.0001) PTRACERS_useGMRedi = /* apply GM-Redi */
(PID.TID 0000.0001)                   F
(PID.TID 0000.0001)     ;
(PID.TID 0000.0001) PTRACERS_useDWNSLP = /* apply DOWN-SLOPE Flow */
(PID.TID 0000.0001)                   F
(PID.TID 0000.0001)     ;
(PID.TID 0000.0001) PTRACERS_useKPP = /* apply KPP scheme */
(PID.TID 0000.0001)                   T
(PID.TID 0000.0001)     ;
(PID.TID 0000.0001) PTRACERS_ref = /* Reference vertical profile */
(PID.TID 0000.0001)    35 @  0.000000000000000E+00              /* K =  1: 35 */
(PID.TID 0000.0001)     ;
(PID.TID 0000.0001) PTRACERS_EvPrRn =/* tracer conc. in Evap. & Rain */
(PID.TID 0000.0001)                 1.234567000000000E+05
(PID.TID 0000.0001)     ;
(PID.TID 0000.0001)  -----------------------------------
(PID.TID 0000.0001)  tracer number :    2
(PID.TID 0000.0001) PTRACERS_names = /* Tracer short name */
(PID.TID 0000.0001)               'NH4'
(PID.TID 0000.0001)     ;
(PID.TID 0000.0001) PTRACERS_long_names = /* Tracer long name */
(PID.TID 0000.0001)               ''
(PID.TID 0000.0001)     ;
(PID.TID 0000.0001) PTRACERS_ioLabel = /* tracer IO Label */
(PID.TID 0000.0001)               '02'
(PID.TID 0000.0001)     ;
(PID.TID 0000.0001) PTRACERS_advScheme = /* Advection Scheme */
(PID.TID 0000.0001)                      33
(PID.TID 0000.0001)     ;
(PID.TID 0000.0001) PTRACERS_SOM_Advection = /* tracer uses SOM advection scheme */
(PID.TID 0000.0001)                   F
(PID.TID 0000.0001)     ;
(PID.TID 0000.0001) PTRACERS_ImplVertAdv = /* implicit vert. advection flag */
(PID.TID 0000.0001)                   F
(PID.TID 0000.0001)     ;
(PID.TID 0000.0001) PTRACERS_diffKh = /* Laplacian Diffusivity */
(PID.TID 0000.0001)                 0.000000000000000E+00
(PID.TID 0000.0001)     ;
(PID.TID 0000.0001) PTRACERS_diffK4 = /* Biharmonic Diffusivity */
(PID.TID 0000.0001)                 0.000000000000000E+00
(PID.TID 0000.0001)     ;
(PID.TID 0000.0001) PTRACERS_diffKrNr = /* Vertical Diffusivity */
(PID.TID 0000.0001)    35 @  1.000000000000000E-05              /* K =  1: 35 */
(PID.TID 0000.0001)     ;
(PID.TID 0000.0001) PTRACERS_useGMRedi = /* apply GM-Redi */
(PID.TID 0000.0001)                   F
(PID.TID 0000.0001)     ;
(PID.TID 0000.0001) PTRACERS_useDWNSLP = /* apply DOWN-SLOPE Flow */
(PID.TID 0000.0001)                   F
(PID.TID 0000.0001)     ;
(PID.TID 0000.0001) PTRACERS_useKPP = /* apply KPP scheme */
(PID.TID 0000.0001)                   T
(PID.TID 0000.0001)     ;
(PID.TID 0000.0001) PTRACERS_ref = /* Reference vertical profile */
(PID.TID 0000.0001)    35 @  0.000000000000000E+00              /* K =  1: 35 */
(PID.TID 0000.0001)     ;
(PID.TID 0000.0001) PTRACERS_EvPrRn =/* tracer conc. in Evap. & Rain */
(PID.TID 0000.0001)                 1.234567000000000E+05
(PID.TID 0000.0001)     ;
(PID.TID 0000.0001)  -----------------------------------
(PID.TID 0000.0001)  tracer number :    3
(PID.TID 0000.0001) PTRACERS_names = /* Tracer short name */
(PID.TID 0000.0001)               'NO2'
(PID.TID 0000.0001)     ;
(PID.TID 0000.0001) PTRACERS_long_names = /* Tracer long name */
(PID.TID 0000.0001)               ''
(PID.TID 0000.0001)     ;
(PID.TID 0000.0001) PTRACERS_ioLabel = /* tracer IO Label */
(PID.TID 0000.0001)               '03'
(PID.TID 0000.0001)     ;
(PID.TID 0000.0001) PTRACERS_advScheme = /* Advection Scheme */
(PID.TID 0000.0001)                      33
(PID.TID 0000.0001)     ;
(PID.TID 0000.0001) PTRACERS_SOM_Advection = /* tracer uses SOM advection scheme */
(PID.TID 0000.0001)                   F
(PID.TID 0000.0001)     ;
(PID.TID 0000.0001) PTRACERS_ImplVertAdv = /* implicit vert. advection flag */
(PID.TID 0000.0001)                   F
(PID.TID 0000.0001)     ;
(PID.TID 0000.0001) PTRACERS_diffKh = /* Laplacian Diffusivity */
(PID.TID 0000.0001)                 0.000000000000000E+00
(PID.TID 0000.0001)     ;
(PID.TID 0000.0001) PTRACERS_diffK4 = /* Biharmonic Diffusivity */
(PID.TID 0000.0001)                 0.000000000000000E+00
(PID.TID 0000.0001)     ;
(PID.TID 0000.0001) PTRACERS_diffKrNr = /* Vertical Diffusivity */
(PID.TID 0000.0001)    35 @  1.000000000000000E-05              /* K =  1: 35 */
(PID.TID 0000.0001)     ;
(PID.TID 0000.0001) PTRACERS_useGMRedi = /* apply GM-Redi */
(PID.TID 0000.0001)                   F
(PID.TID 0000.0001)     ;
(PID.TID 0000.0001) PTRACERS_useDWNSLP = /* apply DOWN-SLOPE Flow */
(PID.TID 0000.0001)                   F
(PID.TID 0000.0001)     ;
(PID.TID 0000.0001) PTRACERS_useKPP = /* apply KPP scheme */
(PID.TID 0000.0001)                   T
(PID.TID 0000.0001)     ;
(PID.TID 0000.0001) PTRACERS_ref = /* Reference vertical profile */
(PID.TID 0000.0001)    35 @  0.000000000000000E+00              /* K =  1: 35 */
(PID.TID 0000.0001)     ;
(PID.TID 0000.0001) PTRACERS_EvPrRn =/* tracer conc. in Evap. & Rain */
(PID.TID 0000.0001)                 1.234567000000000E+05
(PID.TID 0000.0001)     ;
(PID.TID 0000.0001)  -----------------------------------
(PID.TID 0000.0001)  tracer number :    4
(PID.TID 0000.0001) PTRACERS_names = /* Tracer short name */
(PID.TID 0000.0001)               'NO3'
(PID.TID 0000.0001)     ;
(PID.TID 0000.0001) PTRACERS_long_names = /* Tracer long name */
(PID.TID 0000.0001)               ''
(PID.TID 0000.0001)     ;
(PID.TID 0000.0001) PTRACERS_ioLabel = /* tracer IO Label */
(PID.TID 0000.0001)               '04'
(PID.TID 0000.0001)     ;
(PID.TID 0000.0001) PTRACERS_advScheme = /* Advection Scheme */
(PID.TID 0000.0001)                      33
(PID.TID 0000.0001)     ;
(PID.TID 0000.0001) PTRACERS_SOM_Advection = /* tracer uses SOM advection scheme */
(PID.TID 0000.0001)                   F
(PID.TID 0000.0001)     ;
(PID.TID 0000.0001) PTRACERS_ImplVertAdv = /* implicit vert. advection flag */
(PID.TID 0000.0001)                   F
(PID.TID 0000.0001)     ;
(PID.TID 0000.0001) PTRACERS_diffKh = /* Laplacian Diffusivity */
(PID.TID 0000.0001)                 0.000000000000000E+00
(PID.TID 0000.0001)     ;
(PID.TID 0000.0001) PTRACERS_diffK4 = /* Biharmonic Diffusivity */
(PID.TID 0000.0001)                 0.000000000000000E+00
(PID.TID 0000.0001)     ;
(PID.TID 0000.0001) PTRACERS_diffKrNr = /* Vertical Diffusivity */
(PID.TID 0000.0001)    35 @  1.000000000000000E-05              /* K =  1: 35 */
(PID.TID 0000.0001)     ;
(PID.TID 0000.0001) PTRACERS_useGMRedi = /* apply GM-Redi */
(PID.TID 0000.0001)                   F
(PID.TID 0000.0001)     ;
(PID.TID 0000.0001) PTRACERS_useDWNSLP = /* apply DOWN-SLOPE Flow */
(PID.TID 0000.0001)                   F
(PID.TID 0000.0001)     ;
(PID.TID 0000.0001) PTRACERS_useKPP = /* apply KPP scheme */
(PID.TID 0000.0001)                   T
(PID.TID 0000.0001)     ;
(PID.TID 0000.0001) PTRACERS_ref = /* Reference vertical profile */
(PID.TID 0000.0001)    35 @  0.000000000000000E+00              /* K =  1: 35 */
(PID.TID 0000.0001)     ;
(PID.TID 0000.0001) PTRACERS_EvPrRn =/* tracer conc. in Evap. & Rain */
(PID.TID 0000.0001)                 1.234567000000000E+05
(PID.TID 0000.0001)     ;
(PID.TID 0000.0001)  -----------------------------------
(PID.TID 0000.0001)  tracer number :    5
(PID.TID 0000.0001) PTRACERS_names = /* Tracer short name */
(PID.TID 0000.0001)               'PO4'
(PID.TID 0000.0001)     ;
(PID.TID 0000.0001) PTRACERS_long_names = /* Tracer long name */
(PID.TID 0000.0001)               ''
(PID.TID 0000.0001)     ;
(PID.TID 0000.0001) PTRACERS_ioLabel = /* tracer IO Label */
(PID.TID 0000.0001)               '05'
(PID.TID 0000.0001)     ;
(PID.TID 0000.0001) PTRACERS_advScheme = /* Advection Scheme */
(PID.TID 0000.0001)                      33
(PID.TID 0000.0001)     ;
(PID.TID 0000.0001) PTRACERS_SOM_Advection = /* tracer uses SOM advection scheme */
(PID.TID 0000.0001)                   F
(PID.TID 0000.0001)     ;
(PID.TID 0000.0001) PTRACERS_ImplVertAdv = /* implicit vert. advection flag */
(PID.TID 0000.0001)                   F
(PID.TID 0000.0001)     ;
(PID.TID 0000.0001) PTRACERS_diffKh = /* Laplacian Diffusivity */
(PID.TID 0000.0001)                 0.000000000000000E+00
(PID.TID 0000.0001)     ;
(PID.TID 0000.0001) PTRACERS_diffK4 = /* Biharmonic Diffusivity */
(PID.TID 0000.0001)                 0.000000000000000E+00
(PID.TID 0000.0001)     ;
(PID.TID 0000.0001) PTRACERS_diffKrNr = /* Vertical Diffusivity */
(PID.TID 0000.0001)    35 @  1.000000000000000E-05              /* K =  1: 35 */
(PID.TID 0000.0001)     ;
(PID.TID 0000.0001) PTRACERS_useGMRedi = /* apply GM-Redi */
(PID.TID 0000.0001)                   F
(PID.TID 0000.0001)     ;
(PID.TID 0000.0001) PTRACERS_useDWNSLP = /* apply DOWN-SLOPE Flow */
(PID.TID 0000.0001)                   F
(PID.TID 0000.0001)     ;
(PID.TID 0000.0001) PTRACERS_useKPP = /* apply KPP scheme */
(PID.TID 0000.0001)                   T
(PID.TID 0000.0001)     ;
(PID.TID 0000.0001) PTRACERS_ref = /* Reference vertical profile */
(PID.TID 0000.0001)    35 @  0.000000000000000E+00              /* K =  1: 35 */
(PID.TID 0000.0001)     ;
(PID.TID 0000.0001) PTRACERS_EvPrRn =/* tracer conc. in Evap. & Rain */
(PID.TID 0000.0001)                 1.234567000000000E+05
(PID.TID 0000.0001)     ;
(PID.TID 0000.0001)  -----------------------------------
(PID.TID 0000.0001)  tracer number :    6
(PID.TID 0000.0001) PTRACERS_names = /* Tracer short name */
(PID.TID 0000.0001)               'SiO2'
(PID.TID 0000.0001)     ;
(PID.TID 0000.0001) PTRACERS_long_names = /* Tracer long name */
(PID.TID 0000.0001)               ''
(PID.TID 0000.0001)     ;
(PID.TID 0000.0001) PTRACERS_ioLabel = /* tracer IO Label */
(PID.TID 0000.0001)               '06'
(PID.TID 0000.0001)     ;
(PID.TID 0000.0001) PTRACERS_advScheme = /* Advection Scheme */
(PID.TID 0000.0001)                      33
(PID.TID 0000.0001)     ;
(PID.TID 0000.0001) PTRACERS_SOM_Advection = /* tracer uses SOM advection scheme */
(PID.TID 0000.0001)                   F
(PID.TID 0000.0001)     ;
(PID.TID 0000.0001) PTRACERS_ImplVertAdv = /* implicit vert. advection flag */
(PID.TID 0000.0001)                   F
(PID.TID 0000.0001)     ;
(PID.TID 0000.0001) PTRACERS_diffKh = /* Laplacian Diffusivity */
(PID.TID 0000.0001)                 0.000000000000000E+00
(PID.TID 0000.0001)     ;
(PID.TID 0000.0001) PTRACERS_diffK4 = /* Biharmonic Diffusivity */
(PID.TID 0000.0001)                 0.000000000000000E+00
(PID.TID 0000.0001)     ;
(PID.TID 0000.0001) PTRACERS_diffKrNr = /* Vertical Diffusivity */
(PID.TID 0000.0001)    35 @  1.000000000000000E-05              /* K =  1: 35 */
(PID.TID 0000.0001)     ;
(PID.TID 0000.0001) PTRACERS_useGMRedi = /* apply GM-Redi */
(PID.TID 0000.0001)                   F
(PID.TID 0000.0001)     ;
(PID.TID 0000.0001) PTRACERS_useDWNSLP = /* apply DOWN-SLOPE Flow */
(PID.TID 0000.0001)                   F
(PID.TID 0000.0001)     ;
(PID.TID 0000.0001) PTRACERS_useKPP = /* apply KPP scheme */
(PID.TID 0000.0001)                   T
(PID.TID 0000.0001)     ;
(PID.TID 0000.0001) PTRACERS_ref = /* Reference vertical profile */
(PID.TID 0000.0001)    35 @  0.000000000000000E+00              /* K =  1: 35 */
(PID.TID 0000.0001)     ;
(PID.TID 0000.0001) PTRACERS_EvPrRn =/* tracer conc. in Evap. & Rain */
(PID.TID 0000.0001)                 1.234567000000000E+05
(PID.TID 0000.0001)     ;
(PID.TID 0000.0001)  -----------------------------------
(PID.TID 0000.0001)  tracer number :    7
(PID.TID 0000.0001) PTRACERS_names = /* Tracer short name */
(PID.TID 0000.0001)               'FeT'
(PID.TID 0000.0001)     ;
(PID.TID 0000.0001) PTRACERS_long_names = /* Tracer long name */
(PID.TID 0000.0001)               ''
(PID.TID 0000.0001)     ;
(PID.TID 0000.0001) PTRACERS_ioLabel = /* tracer IO Label */
(PID.TID 0000.0001)               '07'
(PID.TID 0000.0001)     ;
(PID.TID 0000.0001) PTRACERS_advScheme = /* Advection Scheme */
(PID.TID 0000.0001)                      33
(PID.TID 0000.0001)     ;
(PID.TID 0000.0001) PTRACERS_SOM_Advection = /* tracer uses SOM advection scheme */
(PID.TID 0000.0001)                   F
(PID.TID 0000.0001)     ;
(PID.TID 0000.0001) PTRACERS_ImplVertAdv = /* implicit vert. advection flag */
(PID.TID 0000.0001)                   F
(PID.TID 0000.0001)     ;
(PID.TID 0000.0001) PTRACERS_diffKh = /* Laplacian Diffusivity */
(PID.TID 0000.0001)                 0.000000000000000E+00
(PID.TID 0000.0001)     ;
(PID.TID 0000.0001) PTRACERS_diffK4 = /* Biharmonic Diffusivity */
(PID.TID 0000.0001)                 0.000000000000000E+00
(PID.TID 0000.0001)     ;
(PID.TID 0000.0001) PTRACERS_diffKrNr = /* Vertical Diffusivity */
(PID.TID 0000.0001)    35 @  1.000000000000000E-05              /* K =  1: 35 */
(PID.TID 0000.0001)     ;
(PID.TID 0000.0001) PTRACERS_useGMRedi = /* apply GM-Redi */
(PID.TID 0000.0001)                   F
(PID.TID 0000.0001)     ;
(PID.TID 0000.0001) PTRACERS_useDWNSLP = /* apply DOWN-SLOPE Flow */
(PID.TID 0000.0001)                   F
(PID.TID 0000.0001)     ;
(PID.TID 0000.0001) PTRACERS_useKPP = /* apply KPP scheme */
(PID.TID 0000.0001)                   T
(PID.TID 0000.0001)     ;
(PID.TID 0000.0001) PTRACERS_ref = /* Reference vertical profile */
(PID.TID 0000.0001)    35 @  0.000000000000000E+00              /* K =  1: 35 */
(PID.TID 0000.0001)     ;
(PID.TID 0000.0001) PTRACERS_EvPrRn =/* tracer conc. in Evap. & Rain */
(PID.TID 0000.0001)                 1.234567000000000E+05
(PID.TID 0000.0001)     ;
(PID.TID 0000.0001)  -----------------------------------
(PID.TID 0000.0001)  tracer number :    8
(PID.TID 0000.0001) PTRACERS_names = /* Tracer short name */
(PID.TID 0000.0001)               'DOC'
(PID.TID 0000.0001)     ;
(PID.TID 0000.0001) PTRACERS_long_names = /* Tracer long name */
(PID.TID 0000.0001)               ''
(PID.TID 0000.0001)     ;
(PID.TID 0000.0001) PTRACERS_ioLabel = /* tracer IO Label */
(PID.TID 0000.0001)               '08'
(PID.TID 0000.0001)     ;
(PID.TID 0000.0001) PTRACERS_advScheme = /* Advection Scheme */
(PID.TID 0000.0001)                      33
(PID.TID 0000.0001)     ;
(PID.TID 0000.0001) PTRACERS_SOM_Advection = /* tracer uses SOM advection scheme */
(PID.TID 0000.0001)                   F
(PID.TID 0000.0001)     ;
(PID.TID 0000.0001) PTRACERS_ImplVertAdv = /* implicit vert. advection flag */
(PID.TID 0000.0001)                   F
(PID.TID 0000.0001)     ;
(PID.TID 0000.0001) PTRACERS_diffKh = /* Laplacian Diffusivity */
(PID.TID 0000.0001)                 0.000000000000000E+00
(PID.TID 0000.0001)     ;
(PID.TID 0000.0001) PTRACERS_diffK4 = /* Biharmonic Diffusivity */
(PID.TID 0000.0001)                 0.000000000000000E+00
(PID.TID 0000.0001)     ;
(PID.TID 0000.0001) PTRACERS_diffKrNr = /* Vertical Diffusivity */
(PID.TID 0000.0001)    35 @  1.000000000000000E-05              /* K =  1: 35 */
(PID.TID 0000.0001)     ;
(PID.TID 0000.0001) PTRACERS_useGMRedi = /* apply GM-Redi */
(PID.TID 0000.0001)                   F
(PID.TID 0000.0001)     ;
(PID.TID 0000.0001) PTRACERS_useDWNSLP = /* apply DOWN-SLOPE Flow */
(PID.TID 0000.0001)                   F
(PID.TID 0000.0001)     ;
(PID.TID 0000.0001) PTRACERS_useKPP = /* apply KPP scheme */
(PID.TID 0000.0001)                   T
(PID.TID 0000.0001)     ;
(PID.TID 0000.0001) PTRACERS_ref = /* Reference vertical profile */
(PID.TID 0000.0001)    35 @  0.000000000000000E+00              /* K =  1: 35 */
(PID.TID 0000.0001)     ;
(PID.TID 0000.0001) PTRACERS_EvPrRn =/* tracer conc. in Evap. & Rain */
(PID.TID 0000.0001)                 1.234567000000000E+05
(PID.TID 0000.0001)     ;
(PID.TID 0000.0001)  -----------------------------------
(PID.TID 0000.0001)  tracer number :    9
(PID.TID 0000.0001) PTRACERS_names = /* Tracer short name */
(PID.TID 0000.0001)               'DON'
(PID.TID 0000.0001)     ;
(PID.TID 0000.0001) PTRACERS_long_names = /* Tracer long name */
(PID.TID 0000.0001)               ''
(PID.TID 0000.0001)     ;
(PID.TID 0000.0001) PTRACERS_ioLabel = /* tracer IO Label */
(PID.TID 0000.0001)               '09'
(PID.TID 0000.0001)     ;
(PID.TID 0000.0001) PTRACERS_advScheme = /* Advection Scheme */
(PID.TID 0000.0001)                      33
(PID.TID 0000.0001)     ;
(PID.TID 0000.0001) PTRACERS_SOM_Advection = /* tracer uses SOM advection scheme */
(PID.TID 0000.0001)                   F
(PID.TID 0000.0001)     ;
(PID.TID 0000.0001) PTRACERS_ImplVertAdv = /* implicit vert. advection flag */
(PID.TID 0000.0001)                   F
(PID.TID 0000.0001)     ;
(PID.TID 0000.0001) PTRACERS_diffKh = /* Laplacian Diffusivity */
(PID.TID 0000.0001)                 0.000000000000000E+00
(PID.TID 0000.0001)     ;
(PID.TID 0000.0001) PTRACERS_diffK4 = /* Biharmonic Diffusivity */
(PID.TID 0000.0001)                 0.000000000000000E+00
(PID.TID 0000.0001)     ;
(PID.TID 0000.0001) PTRACERS_diffKrNr = /* Vertical Diffusivity */
(PID.TID 0000.0001)    35 @  1.000000000000000E-05              /* K =  1: 35 */
(PID.TID 0000.0001)     ;
(PID.TID 0000.0001) PTRACERS_useGMRedi = /* apply GM-Redi */
(PID.TID 0000.0001)                   F
(PID.TID 0000.0001)     ;
(PID.TID 0000.0001) PTRACERS_useDWNSLP = /* apply DOWN-SLOPE Flow */
(PID.TID 0000.0001)                   F
(PID.TID 0000.0001)     ;
(PID.TID 0000.0001) PTRACERS_useKPP = /* apply KPP scheme */
(PID.TID 0000.0001)                   T
(PID.TID 0000.0001)     ;
(PID.TID 0000.0001) PTRACERS_ref = /* Reference vertical profile */
(PID.TID 0000.0001)    35 @  0.000000000000000E+00              /* K =  1: 35 */
(PID.TID 0000.0001)     ;
(PID.TID 0000.0001) PTRACERS_EvPrRn =/* tracer conc. in Evap. & Rain */
(PID.TID 0000.0001)                 1.234567000000000E+05
(PID.TID 0000.0001)     ;
(PID.TID 0000.0001)  -----------------------------------
(PID.TID 0000.0001)  tracer number :   10
(PID.TID 0000.0001) PTRACERS_names = /* Tracer short name */
(PID.TID 0000.0001)               'DOP'
(PID.TID 0000.0001)     ;
(PID.TID 0000.0001) PTRACERS_long_names = /* Tracer long name */
(PID.TID 0000.0001)               ''
(PID.TID 0000.0001)     ;
(PID.TID 0000.0001) PTRACERS_ioLabel = /* tracer IO Label */
(PID.TID 0000.0001)               '10'
(PID.TID 0000.0001)     ;
(PID.TID 0000.0001) PTRACERS_advScheme = /* Advection Scheme */
(PID.TID 0000.0001)                      33
(PID.TID 0000.0001)     ;
(PID.TID 0000.0001) PTRACERS_SOM_Advection = /* tracer uses SOM advection scheme */
(PID.TID 0000.0001)                   F
(PID.TID 0000.0001)     ;
(PID.TID 0000.0001) PTRACERS_ImplVertAdv = /* implicit vert. advection flag */
(PID.TID 0000.0001)                   F
(PID.TID 0000.0001)     ;
(PID.TID 0000.0001) PTRACERS_diffKh = /* Laplacian Diffusivity */
(PID.TID 0000.0001)                 0.000000000000000E+00
(PID.TID 0000.0001)     ;
(PID.TID 0000.0001) PTRACERS_diffK4 = /* Biharmonic Diffusivity */
(PID.TID 0000.0001)                 0.000000000000000E+00
(PID.TID 0000.0001)     ;
(PID.TID 0000.0001) PTRACERS_diffKrNr = /* Vertical Diffusivity */
(PID.TID 0000.0001)    35 @  1.000000000000000E-05              /* K =  1: 35 */
(PID.TID 0000.0001)     ;
(PID.TID 0000.0001) PTRACERS_useGMRedi = /* apply GM-Redi */
(PID.TID 0000.0001)                   F
(PID.TID 0000.0001)     ;
(PID.TID 0000.0001) PTRACERS_useDWNSLP = /* apply DOWN-SLOPE Flow */
(PID.TID 0000.0001)                   F
(PID.TID 0000.0001)     ;
(PID.TID 0000.0001) PTRACERS_useKPP = /* apply KPP scheme */
(PID.TID 0000.0001)                   T
(PID.TID 0000.0001)     ;
(PID.TID 0000.0001) PTRACERS_ref = /* Reference vertical profile */
(PID.TID 0000.0001)    35 @  0.000000000000000E+00              /* K =  1: 35 */
(PID.TID 0000.0001)     ;
(PID.TID 0000.0001) PTRACERS_EvPrRn =/* tracer conc. in Evap. & Rain */
(PID.TID 0000.0001)                 1.234567000000000E+05
(PID.TID 0000.0001)     ;
(PID.TID 0000.0001)  -----------------------------------
(PID.TID 0000.0001)  tracer number :   11
(PID.TID 0000.0001) PTRACERS_names = /* Tracer short name */
(PID.TID 0000.0001)               'DOFe'
(PID.TID 0000.0001)     ;
(PID.TID 0000.0001) PTRACERS_long_names = /* Tracer long name */
(PID.TID 0000.0001)               ''
(PID.TID 0000.0001)     ;
(PID.TID 0000.0001) PTRACERS_ioLabel = /* tracer IO Label */
(PID.TID 0000.0001)               '11'
(PID.TID 0000.0001)     ;
(PID.TID 0000.0001) PTRACERS_advScheme = /* Advection Scheme */
(PID.TID 0000.0001)                      33
(PID.TID 0000.0001)     ;
(PID.TID 0000.0001) PTRACERS_SOM_Advection = /* tracer uses SOM advection scheme */
(PID.TID 0000.0001)                   F
(PID.TID 0000.0001)     ;
(PID.TID 0000.0001) PTRACERS_ImplVertAdv = /* implicit vert. advection flag */
(PID.TID 0000.0001)                   F
(PID.TID 0000.0001)     ;
(PID.TID 0000.0001) PTRACERS_diffKh = /* Laplacian Diffusivity */
(PID.TID 0000.0001)                 0.000000000000000E+00
(PID.TID 0000.0001)     ;
(PID.TID 0000.0001) PTRACERS_diffK4 = /* Biharmonic Diffusivity */
(PID.TID 0000.0001)                 0.000000000000000E+00
(PID.TID 0000.0001)     ;
(PID.TID 0000.0001) PTRACERS_diffKrNr = /* Vertical Diffusivity */
(PID.TID 0000.0001)    35 @  1.000000000000000E-05              /* K =  1: 35 */
(PID.TID 0000.0001)     ;
(PID.TID 0000.0001) PTRACERS_useGMRedi = /* apply GM-Redi */
(PID.TID 0000.0001)                   F
(PID.TID 0000.0001)     ;
(PID.TID 0000.0001) PTRACERS_useDWNSLP = /* apply DOWN-SLOPE Flow */
(PID.TID 0000.0001)                   F
(PID.TID 0000.0001)     ;
(PID.TID 0000.0001) PTRACERS_useKPP = /* apply KPP scheme */
(PID.TID 0000.0001)                   T
(PID.TID 0000.0001)     ;
(PID.TID 0000.0001) PTRACERS_ref = /* Reference vertical profile */
(PID.TID 0000.0001)    35 @  0.000000000000000E+00              /* K =  1: 35 */
(PID.TID 0000.0001)     ;
(PID.TID 0000.0001) PTRACERS_EvPrRn =/* tracer conc. in Evap. & Rain */
(PID.TID 0000.0001)                 1.234567000000000E+05
(PID.TID 0000.0001)     ;
(PID.TID 0000.0001)  -----------------------------------
(PID.TID 0000.0001)  tracer number :   12
(PID.TID 0000.0001) PTRACERS_names = /* Tracer short name */
(PID.TID 0000.0001)               'POC'
(PID.TID 0000.0001)     ;
(PID.TID 0000.0001) PTRACERS_long_names = /* Tracer long name */
(PID.TID 0000.0001)               ''
(PID.TID 0000.0001)     ;
(PID.TID 0000.0001) PTRACERS_ioLabel = /* tracer IO Label */
(PID.TID 0000.0001)               '12'
(PID.TID 0000.0001)     ;
(PID.TID 0000.0001) PTRACERS_advScheme = /* Advection Scheme */
(PID.TID 0000.0001)                      33
(PID.TID 0000.0001)     ;
(PID.TID 0000.0001) PTRACERS_SOM_Advection = /* tracer uses SOM advection scheme */
(PID.TID 0000.0001)                   F
(PID.TID 0000.0001)     ;
(PID.TID 0000.0001) PTRACERS_ImplVertAdv = /* implicit vert. advection flag */
(PID.TID 0000.0001)                   F
(PID.TID 0000.0001)     ;
(PID.TID 0000.0001) PTRACERS_diffKh = /* Laplacian Diffusivity */
(PID.TID 0000.0001)                 0.000000000000000E+00
(PID.TID 0000.0001)     ;
(PID.TID 0000.0001) PTRACERS_diffK4 = /* Biharmonic Diffusivity */
(PID.TID 0000.0001)                 0.000000000000000E+00
(PID.TID 0000.0001)     ;
(PID.TID 0000.0001) PTRACERS_diffKrNr = /* Vertical Diffusivity */
(PID.TID 0000.0001)    35 @  1.000000000000000E-05              /* K =  1: 35 */
(PID.TID 0000.0001)     ;
(PID.TID 0000.0001) PTRACERS_useGMRedi = /* apply GM-Redi */
(PID.TID 0000.0001)                   F
(PID.TID 0000.0001)     ;
(PID.TID 0000.0001) PTRACERS_useDWNSLP = /* apply DOWN-SLOPE Flow */
(PID.TID 0000.0001)                   F
(PID.TID 0000.0001)     ;
(PID.TID 0000.0001) PTRACERS_useKPP = /* apply KPP scheme */
(PID.TID 0000.0001)                   T
(PID.TID 0000.0001)     ;
(PID.TID 0000.0001) PTRACERS_ref = /* Reference vertical profile */
(PID.TID 0000.0001)    35 @  0.000000000000000E+00              /* K =  1: 35 */
(PID.TID 0000.0001)     ;
(PID.TID 0000.0001) PTRACERS_EvPrRn =/* tracer conc. in Evap. & Rain */
(PID.TID 0000.0001)                 1.234567000000000E+05
(PID.TID 0000.0001)     ;
(PID.TID 0000.0001)  -----------------------------------
(PID.TID 0000.0001)  tracer number :   13
(PID.TID 0000.0001) PTRACERS_names = /* Tracer short name */
(PID.TID 0000.0001)               'PON'
(PID.TID 0000.0001)     ;
(PID.TID 0000.0001) PTRACERS_long_names = /* Tracer long name */
(PID.TID 0000.0001)               ''
(PID.TID 0000.0001)     ;
(PID.TID 0000.0001) PTRACERS_ioLabel = /* tracer IO Label */
(PID.TID 0000.0001)               '13'
(PID.TID 0000.0001)     ;
(PID.TID 0000.0001) PTRACERS_advScheme = /* Advection Scheme */
(PID.TID 0000.0001)                      33
(PID.TID 0000.0001)     ;
(PID.TID 0000.0001) PTRACERS_SOM_Advection = /* tracer uses SOM advection scheme */
(PID.TID 0000.0001)                   F
(PID.TID 0000.0001)     ;
(PID.TID 0000.0001) PTRACERS_ImplVertAdv = /* implicit vert. advection flag */
(PID.TID 0000.0001)                   F
(PID.TID 0000.0001)     ;
(PID.TID 0000.0001) PTRACERS_diffKh = /* Laplacian Diffusivity */
(PID.TID 0000.0001)                 0.000000000000000E+00
(PID.TID 0000.0001)     ;
(PID.TID 0000.0001) PTRACERS_diffK4 = /* Biharmonic Diffusivity */
(PID.TID 0000.0001)                 0.000000000000000E+00
(PID.TID 0000.0001)     ;
(PID.TID 0000.0001) PTRACERS_diffKrNr = /* Vertical Diffusivity */
(PID.TID 0000.0001)    35 @  1.000000000000000E-05              /* K =  1: 35 */
(PID.TID 0000.0001)     ;
(PID.TID 0000.0001) PTRACERS_useGMRedi = /* apply GM-Redi */
(PID.TID 0000.0001)                   F
(PID.TID 0000.0001)     ;
(PID.TID 0000.0001) PTRACERS_useDWNSLP = /* apply DOWN-SLOPE Flow */
(PID.TID 0000.0001)                   F
(PID.TID 0000.0001)     ;
(PID.TID 0000.0001) PTRACERS_useKPP = /* apply KPP scheme */
(PID.TID 0000.0001)                   T
(PID.TID 0000.0001)     ;
(PID.TID 0000.0001) PTRACERS_ref = /* Reference vertical profile */
(PID.TID 0000.0001)    35 @  0.000000000000000E+00              /* K =  1: 35 */
(PID.TID 0000.0001)     ;
(PID.TID 0000.0001) PTRACERS_EvPrRn =/* tracer conc. in Evap. & Rain */
(PID.TID 0000.0001)                 1.234567000000000E+05
(PID.TID 0000.0001)     ;
(PID.TID 0000.0001)  -----------------------------------
(PID.TID 0000.0001)  tracer number :   14
(PID.TID 0000.0001) PTRACERS_names = /* Tracer short name */
(PID.TID 0000.0001)               'POP'
(PID.TID 0000.0001)     ;
(PID.TID 0000.0001) PTRACERS_long_names = /* Tracer long name */
(PID.TID 0000.0001)               ''
(PID.TID 0000.0001)     ;
(PID.TID 0000.0001) PTRACERS_ioLabel = /* tracer IO Label */
(PID.TID 0000.0001)               '14'
(PID.TID 0000.0001)     ;
(PID.TID 0000.0001) PTRACERS_advScheme = /* Advection Scheme */
(PID.TID 0000.0001)                      33
(PID.TID 0000.0001)     ;
(PID.TID 0000.0001) PTRACERS_SOM_Advection = /* tracer uses SOM advection scheme */
(PID.TID 0000.0001)                   F
(PID.TID 0000.0001)     ;
(PID.TID 0000.0001) PTRACERS_ImplVertAdv = /* implicit vert. advection flag */
(PID.TID 0000.0001)                   F
(PID.TID 0000.0001)     ;
(PID.TID 0000.0001) PTRACERS_diffKh = /* Laplacian Diffusivity */
(PID.TID 0000.0001)                 0.000000000000000E+00
(PID.TID 0000.0001)     ;
(PID.TID 0000.0001) PTRACERS_diffK4 = /* Biharmonic Diffusivity */
(PID.TID 0000.0001)                 0.000000000000000E+00
(PID.TID 0000.0001)     ;
(PID.TID 0000.0001) PTRACERS_diffKrNr = /* Vertical Diffusivity */
(PID.TID 0000.0001)    35 @  1.000000000000000E-05              /* K =  1: 35 */
(PID.TID 0000.0001)     ;
(PID.TID 0000.0001) PTRACERS_useGMRedi = /* apply GM-Redi */
(PID.TID 0000.0001)                   F
(PID.TID 0000.0001)     ;
(PID.TID 0000.0001) PTRACERS_useDWNSLP = /* apply DOWN-SLOPE Flow */
(PID.TID 0000.0001)                   F
(PID.TID 0000.0001)     ;
(PID.TID 0000.0001) PTRACERS_useKPP = /* apply KPP scheme */
(PID.TID 0000.0001)                   T
(PID.TID 0000.0001)     ;
(PID.TID 0000.0001) PTRACERS_ref = /* Reference vertical profile */
(PID.TID 0000.0001)    35 @  0.000000000000000E+00              /* K =  1: 35 */
(PID.TID 0000.0001)     ;
(PID.TID 0000.0001) PTRACERS_EvPrRn =/* tracer conc. in Evap. & Rain */
(PID.TID 0000.0001)                 1.234567000000000E+05
(PID.TID 0000.0001)     ;
(PID.TID 0000.0001)  -----------------------------------
(PID.TID 0000.0001)  tracer number :   15
(PID.TID 0000.0001) PTRACERS_names = /* Tracer short name */
(PID.TID 0000.0001)               'POSi'
(PID.TID 0000.0001)     ;
(PID.TID 0000.0001) PTRACERS_long_names = /* Tracer long name */
(PID.TID 0000.0001)               ''
(PID.TID 0000.0001)     ;
(PID.TID 0000.0001) PTRACERS_ioLabel = /* tracer IO Label */
(PID.TID 0000.0001)               '15'
(PID.TID 0000.0001)     ;
(PID.TID 0000.0001) PTRACERS_advScheme = /* Advection Scheme */
(PID.TID 0000.0001)                      33
(PID.TID 0000.0001)     ;
(PID.TID 0000.0001) PTRACERS_SOM_Advection = /* tracer uses SOM advection scheme */
(PID.TID 0000.0001)                   F
(PID.TID 0000.0001)     ;
(PID.TID 0000.0001) PTRACERS_ImplVertAdv = /* implicit vert. advection flag */
(PID.TID 0000.0001)                   F
(PID.TID 0000.0001)     ;
(PID.TID 0000.0001) PTRACERS_diffKh = /* Laplacian Diffusivity */
(PID.TID 0000.0001)                 0.000000000000000E+00
(PID.TID 0000.0001)     ;
(PID.TID 0000.0001) PTRACERS_diffK4 = /* Biharmonic Diffusivity */
(PID.TID 0000.0001)                 0.000000000000000E+00
(PID.TID 0000.0001)     ;
(PID.TID 0000.0001) PTRACERS_diffKrNr = /* Vertical Diffusivity */
(PID.TID 0000.0001)    35 @  1.000000000000000E-05              /* K =  1: 35 */
(PID.TID 0000.0001)     ;
(PID.TID 0000.0001) PTRACERS_useGMRedi = /* apply GM-Redi */
(PID.TID 0000.0001)                   F
(PID.TID 0000.0001)     ;
(PID.TID 0000.0001) PTRACERS_useDWNSLP = /* apply DOWN-SLOPE Flow */
(PID.TID 0000.0001)                   F
(PID.TID 0000.0001)     ;
(PID.TID 0000.0001) PTRACERS_useKPP = /* apply KPP scheme */
(PID.TID 0000.0001)                   T
(PID.TID 0000.0001)     ;
(PID.TID 0000.0001) PTRACERS_ref = /* Reference vertical profile */
(PID.TID 0000.0001)    35 @  0.000000000000000E+00              /* K =  1: 35 */
(PID.TID 0000.0001)     ;
(PID.TID 0000.0001) PTRACERS_EvPrRn =/* tracer conc. in Evap. & Rain */
(PID.TID 0000.0001)                 1.234567000000000E+05
(PID.TID 0000.0001)     ;
(PID.TID 0000.0001)  -----------------------------------
(PID.TID 0000.0001)  tracer number :   16
(PID.TID 0000.0001) PTRACERS_names = /* Tracer short name */
(PID.TID 0000.0001)               'POFe'
(PID.TID 0000.0001)     ;
(PID.TID 0000.0001) PTRACERS_long_names = /* Tracer long name */
(PID.TID 0000.0001)               ''
(PID.TID 0000.0001)     ;
(PID.TID 0000.0001) PTRACERS_ioLabel = /* tracer IO Label */
(PID.TID 0000.0001)               '16'
(PID.TID 0000.0001)     ;
(PID.TID 0000.0001) PTRACERS_advScheme = /* Advection Scheme */
(PID.TID 0000.0001)                      33
(PID.TID 0000.0001)     ;
(PID.TID 0000.0001) PTRACERS_SOM_Advection = /* tracer uses SOM advection scheme */
(PID.TID 0000.0001)                   F
(PID.TID 0000.0001)     ;
(PID.TID 0000.0001) PTRACERS_ImplVertAdv = /* implicit vert. advection flag */
(PID.TID 0000.0001)                   F
(PID.TID 0000.0001)     ;
(PID.TID 0000.0001) PTRACERS_diffKh = /* Laplacian Diffusivity */
(PID.TID 0000.0001)                 0.000000000000000E+00
(PID.TID 0000.0001)     ;
(PID.TID 0000.0001) PTRACERS_diffK4 = /* Biharmonic Diffusivity */
(PID.TID 0000.0001)                 0.000000000000000E+00
(PID.TID 0000.0001)     ;
(PID.TID 0000.0001) PTRACERS_diffKrNr = /* Vertical Diffusivity */
(PID.TID 0000.0001)    35 @  1.000000000000000E-05              /* K =  1: 35 */
(PID.TID 0000.0001)     ;
(PID.TID 0000.0001) PTRACERS_useGMRedi = /* apply GM-Redi */
(PID.TID 0000.0001)                   F
(PID.TID 0000.0001)     ;
(PID.TID 0000.0001) PTRACERS_useDWNSLP = /* apply DOWN-SLOPE Flow */
(PID.TID 0000.0001)                   F
(PID.TID 0000.0001)     ;
(PID.TID 0000.0001) PTRACERS_useKPP = /* apply KPP scheme */
(PID.TID 0000.0001)                   T
(PID.TID 0000.0001)     ;
(PID.TID 0000.0001) PTRACERS_ref = /* Reference vertical profile */
(PID.TID 0000.0001)    35 @  0.000000000000000E+00              /* K =  1: 35 */
(PID.TID 0000.0001)     ;
(PID.TID 0000.0001) PTRACERS_EvPrRn =/* tracer conc. in Evap. & Rain */
(PID.TID 0000.0001)                 1.234567000000000E+05
(PID.TID 0000.0001)     ;
(PID.TID 0000.0001)  -----------------------------------
(PID.TID 0000.0001)  tracer number :   17
(PID.TID 0000.0001) PTRACERS_names = /* Tracer short name */
(PID.TID 0000.0001)               'PIC'
(PID.TID 0000.0001)     ;
(PID.TID 0000.0001) PTRACERS_long_names = /* Tracer long name */
(PID.TID 0000.0001)               ''
(PID.TID 0000.0001)     ;
(PID.TID 0000.0001) PTRACERS_ioLabel = /* tracer IO Label */
(PID.TID 0000.0001)               '17'
(PID.TID 0000.0001)     ;
(PID.TID 0000.0001) PTRACERS_advScheme = /* Advection Scheme */
(PID.TID 0000.0001)                      33
(PID.TID 0000.0001)     ;
(PID.TID 0000.0001) PTRACERS_SOM_Advection = /* tracer uses SOM advection scheme */
(PID.TID 0000.0001)                   F
(PID.TID 0000.0001)     ;
(PID.TID 0000.0001) PTRACERS_ImplVertAdv = /* implicit vert. advection flag */
(PID.TID 0000.0001)                   F
(PID.TID 0000.0001)     ;
(PID.TID 0000.0001) PTRACERS_diffKh = /* Laplacian Diffusivity */
(PID.TID 0000.0001)                 0.000000000000000E+00
(PID.TID 0000.0001)     ;
(PID.TID 0000.0001) PTRACERS_diffK4 = /* Biharmonic Diffusivity */
(PID.TID 0000.0001)                 0.000000000000000E+00
(PID.TID 0000.0001)     ;
(PID.TID 0000.0001) PTRACERS_diffKrNr = /* Vertical Diffusivity */
(PID.TID 0000.0001)    35 @  1.000000000000000E-05              /* K =  1: 35 */
(PID.TID 0000.0001)     ;
(PID.TID 0000.0001) PTRACERS_useGMRedi = /* apply GM-Redi */
(PID.TID 0000.0001)                   F
(PID.TID 0000.0001)     ;
(PID.TID 0000.0001) PTRACERS_useDWNSLP = /* apply DOWN-SLOPE Flow */
(PID.TID 0000.0001)                   F
(PID.TID 0000.0001)     ;
(PID.TID 0000.0001) PTRACERS_useKPP = /* apply KPP scheme */
(PID.TID 0000.0001)                   T
(PID.TID 0000.0001)     ;
(PID.TID 0000.0001) PTRACERS_ref = /* Reference vertical profile */
(PID.TID 0000.0001)    35 @  0.000000000000000E+00              /* K =  1: 35 */
(PID.TID 0000.0001)     ;
(PID.TID 0000.0001) PTRACERS_EvPrRn =/* tracer conc. in Evap. & Rain */
(PID.TID 0000.0001)                 1.234567000000000E+05
(PID.TID 0000.0001)     ;
(PID.TID 0000.0001)  -----------------------------------
(PID.TID 0000.0001)  tracer number :   18
(PID.TID 0000.0001) PTRACERS_names = /* Tracer short name */
(PID.TID 0000.0001)               'c01'
(PID.TID 0000.0001)     ;
(PID.TID 0000.0001) PTRACERS_long_names = /* Tracer long name */
(PID.TID 0000.0001)               ''
(PID.TID 0000.0001)     ;
(PID.TID 0000.0001) PTRACERS_ioLabel = /* tracer IO Label */
(PID.TID 0000.0001)               '18'
(PID.TID 0000.0001)     ;
(PID.TID 0000.0001) PTRACERS_advScheme = /* Advection Scheme */
(PID.TID 0000.0001)                      33
(PID.TID 0000.0001)     ;
(PID.TID 0000.0001) PTRACERS_SOM_Advection = /* tracer uses SOM advection scheme */
(PID.TID 0000.0001)                   F
(PID.TID 0000.0001)     ;
(PID.TID 0000.0001) PTRACERS_ImplVertAdv = /* implicit vert. advection flag */
(PID.TID 0000.0001)                   F
(PID.TID 0000.0001)     ;
(PID.TID 0000.0001) PTRACERS_diffKh = /* Laplacian Diffusivity */
(PID.TID 0000.0001)                 0.000000000000000E+00
(PID.TID 0000.0001)     ;
(PID.TID 0000.0001) PTRACERS_diffK4 = /* Biharmonic Diffusivity */
(PID.TID 0000.0001)                 0.000000000000000E+00
(PID.TID 0000.0001)     ;
(PID.TID 0000.0001) PTRACERS_diffKrNr = /* Vertical Diffusivity */
(PID.TID 0000.0001)    35 @  1.000000000000000E-05              /* K =  1: 35 */
(PID.TID 0000.0001)     ;
(PID.TID 0000.0001) PTRACERS_useGMRedi = /* apply GM-Redi */
(PID.TID 0000.0001)                   F
(PID.TID 0000.0001)     ;
(PID.TID 0000.0001) PTRACERS_useDWNSLP = /* apply DOWN-SLOPE Flow */
(PID.TID 0000.0001)                   F
(PID.TID 0000.0001)     ;
(PID.TID 0000.0001) PTRACERS_useKPP = /* apply KPP scheme */
(PID.TID 0000.0001)                   T
(PID.TID 0000.0001)     ;
(PID.TID 0000.0001) PTRACERS_ref = /* Reference vertical profile */
(PID.TID 0000.0001)     5 @  1.000000000000000E+00,             /* K =  1:  5 */
(PID.TID 0000.0001)    30 @  0.000000000000000E+00              /* K =  6: 35 */
(PID.TID 0000.0001)     ;
(PID.TID 0000.0001) PTRACERS_EvPrRn =/* tracer conc. in Evap. & Rain */
(PID.TID 0000.0001)                 1.234567000000000E+05
(PID.TID 0000.0001)     ;
(PID.TID 0000.0001)  -----------------------------------
(PID.TID 0000.0001)  tracer number :   19
(PID.TID 0000.0001) PTRACERS_names = /* Tracer short name */
(PID.TID 0000.0001)               'c02'
(PID.TID 0000.0001)     ;
(PID.TID 0000.0001) PTRACERS_long_names = /* Tracer long name */
(PID.TID 0000.0001)               ''
(PID.TID 0000.0001)     ;
(PID.TID 0000.0001) PTRACERS_ioLabel = /* tracer IO Label */
(PID.TID 0000.0001)               '19'
(PID.TID 0000.0001)     ;
(PID.TID 0000.0001) PTRACERS_advScheme = /* Advection Scheme */
(PID.TID 0000.0001)                      33
(PID.TID 0000.0001)     ;
(PID.TID 0000.0001) PTRACERS_SOM_Advection = /* tracer uses SOM advection scheme */
(PID.TID 0000.0001)                   F
(PID.TID 0000.0001)     ;
(PID.TID 0000.0001) PTRACERS_ImplVertAdv = /* implicit vert. advection flag */
(PID.TID 0000.0001)                   F
(PID.TID 0000.0001)     ;
(PID.TID 0000.0001) PTRACERS_diffKh = /* Laplacian Diffusivity */
(PID.TID 0000.0001)                 0.000000000000000E+00
(PID.TID 0000.0001)     ;
(PID.TID 0000.0001) PTRACERS_diffK4 = /* Biharmonic Diffusivity */
(PID.TID 0000.0001)                 0.000000000000000E+00
(PID.TID 0000.0001)     ;
(PID.TID 0000.0001) PTRACERS_diffKrNr = /* Vertical Diffusivity */
(PID.TID 0000.0001)    35 @  1.000000000000000E-05              /* K =  1: 35 */
(PID.TID 0000.0001)     ;
(PID.TID 0000.0001) PTRACERS_useGMRedi = /* apply GM-Redi */
(PID.TID 0000.0001)                   F
(PID.TID 0000.0001)     ;
(PID.TID 0000.0001) PTRACERS_useDWNSLP = /* apply DOWN-SLOPE Flow */
(PID.TID 0000.0001)                   F
(PID.TID 0000.0001)     ;
(PID.TID 0000.0001) PTRACERS_useKPP = /* apply KPP scheme */
(PID.TID 0000.0001)                   T
(PID.TID 0000.0001)     ;
(PID.TID 0000.0001) PTRACERS_ref = /* Reference vertical profile */
(PID.TID 0000.0001)     5 @  1.000000000000000E+00,             /* K =  1:  5 */
(PID.TID 0000.0001)    30 @  0.000000000000000E+00              /* K =  6: 35 */
(PID.TID 0000.0001)     ;
(PID.TID 0000.0001) PTRACERS_EvPrRn =/* tracer conc. in Evap. & Rain */
(PID.TID 0000.0001)                 1.234567000000000E+05
(PID.TID 0000.0001)     ;
(PID.TID 0000.0001)  -----------------------------------
(PID.TID 0000.0001)  tracer number :   20
(PID.TID 0000.0001) PTRACERS_names = /* Tracer short name */
(PID.TID 0000.0001)               'c03'
(PID.TID 0000.0001)     ;
(PID.TID 0000.0001) PTRACERS_long_names = /* Tracer long name */
(PID.TID 0000.0001)               ''
(PID.TID 0000.0001)     ;
(PID.TID 0000.0001) PTRACERS_ioLabel = /* tracer IO Label */
(PID.TID 0000.0001)               '20'
(PID.TID 0000.0001)     ;
(PID.TID 0000.0001) PTRACERS_advScheme = /* Advection Scheme */
(PID.TID 0000.0001)                      33
(PID.TID 0000.0001)     ;
(PID.TID 0000.0001) PTRACERS_SOM_Advection = /* tracer uses SOM advection scheme */
(PID.TID 0000.0001)                   F
(PID.TID 0000.0001)     ;
(PID.TID 0000.0001) PTRACERS_ImplVertAdv = /* implicit vert. advection flag */
(PID.TID 0000.0001)                   F
(PID.TID 0000.0001)     ;
(PID.TID 0000.0001) PTRACERS_diffKh = /* Laplacian Diffusivity */
(PID.TID 0000.0001)                 0.000000000000000E+00
(PID.TID 0000.0001)     ;
(PID.TID 0000.0001) PTRACERS_diffK4 = /* Biharmonic Diffusivity */
(PID.TID 0000.0001)                 0.000000000000000E+00
(PID.TID 0000.0001)     ;
(PID.TID 0000.0001) PTRACERS_diffKrNr = /* Vertical Diffusivity */
(PID.TID 0000.0001)    35 @  1.000000000000000E-05              /* K =  1: 35 */
(PID.TID 0000.0001)     ;
(PID.TID 0000.0001) PTRACERS_useGMRedi = /* apply GM-Redi */
(PID.TID 0000.0001)                   F
(PID.TID 0000.0001)     ;
(PID.TID 0000.0001) PTRACERS_useDWNSLP = /* apply DOWN-SLOPE Flow */
(PID.TID 0000.0001)                   F
(PID.TID 0000.0001)     ;
(PID.TID 0000.0001) PTRACERS_useKPP = /* apply KPP scheme */
(PID.TID 0000.0001)                   T
(PID.TID 0000.0001)     ;
(PID.TID 0000.0001) PTRACERS_ref = /* Reference vertical profile */
(PID.TID 0000.0001)     5 @  1.000000000000000E+00,             /* K =  1:  5 */
(PID.TID 0000.0001)    30 @  0.000000000000000E+00              /* K =  6: 35 */
(PID.TID 0000.0001)     ;
(PID.TID 0000.0001) PTRACERS_EvPrRn =/* tracer conc. in Evap. & Rain */
(PID.TID 0000.0001)                 1.234567000000000E+05
(PID.TID 0000.0001)     ;
(PID.TID 0000.0001)  -----------------------------------
(PID.TID 0000.0001)  tracer number :   21
(PID.TID 0000.0001) PTRACERS_names = /* Tracer short name */
(PID.TID 0000.0001)               'c04'
(PID.TID 0000.0001)     ;
(PID.TID 0000.0001) PTRACERS_long_names = /* Tracer long name */
(PID.TID 0000.0001)               ''
(PID.TID 0000.0001)     ;
(PID.TID 0000.0001) PTRACERS_ioLabel = /* tracer IO Label */
(PID.TID 0000.0001)               '21'
(PID.TID 0000.0001)     ;
(PID.TID 0000.0001) PTRACERS_advScheme = /* Advection Scheme */
(PID.TID 0000.0001)                      33
(PID.TID 0000.0001)     ;
(PID.TID 0000.0001) PTRACERS_SOM_Advection = /* tracer uses SOM advection scheme */
(PID.TID 0000.0001)                   F
(PID.TID 0000.0001)     ;
(PID.TID 0000.0001) PTRACERS_ImplVertAdv = /* implicit vert. advection flag */
(PID.TID 0000.0001)                   F
(PID.TID 0000.0001)     ;
(PID.TID 0000.0001) PTRACERS_diffKh = /* Laplacian Diffusivity */
(PID.TID 0000.0001)                 0.000000000000000E+00
(PID.TID 0000.0001)     ;
(PID.TID 0000.0001) PTRACERS_diffK4 = /* Biharmonic Diffusivity */
(PID.TID 0000.0001)                 0.000000000000000E+00
(PID.TID 0000.0001)     ;
(PID.TID 0000.0001) PTRACERS_diffKrNr = /* Vertical Diffusivity */
(PID.TID 0000.0001)    35 @  1.000000000000000E-05              /* K =  1: 35 */
(PID.TID 0000.0001)     ;
(PID.TID 0000.0001) PTRACERS_useGMRedi = /* apply GM-Redi */
(PID.TID 0000.0001)                   F
(PID.TID 0000.0001)     ;
(PID.TID 0000.0001) PTRACERS_useDWNSLP = /* apply DOWN-SLOPE Flow */
(PID.TID 0000.0001)                   F
(PID.TID 0000.0001)     ;
(PID.TID 0000.0001) PTRACERS_useKPP = /* apply KPP scheme */
(PID.TID 0000.0001)                   T
(PID.TID 0000.0001)     ;
(PID.TID 0000.0001) PTRACERS_ref = /* Reference vertical profile */
(PID.TID 0000.0001)     5 @  1.000000000000000E+00,             /* K =  1:  5 */
(PID.TID 0000.0001)    30 @  0.000000000000000E+00              /* K =  6: 35 */
(PID.TID 0000.0001)     ;
(PID.TID 0000.0001) PTRACERS_EvPrRn =/* tracer conc. in Evap. & Rain */
(PID.TID 0000.0001)                 1.234567000000000E+05
(PID.TID 0000.0001)     ;
(PID.TID 0000.0001)  -----------------------------------
(PID.TID 0000.0001)  tracer number :   22
(PID.TID 0000.0001) PTRACERS_names = /* Tracer short name */
(PID.TID 0000.0001)               'c05'
(PID.TID 0000.0001)     ;
(PID.TID 0000.0001) PTRACERS_long_names = /* Tracer long name */
(PID.TID 0000.0001)               ''
(PID.TID 0000.0001)     ;
(PID.TID 0000.0001) PTRACERS_ioLabel = /* tracer IO Label */
(PID.TID 0000.0001)               '22'
(PID.TID 0000.0001)     ;
(PID.TID 0000.0001) PTRACERS_advScheme = /* Advection Scheme */
(PID.TID 0000.0001)                      33
(PID.TID 0000.0001)     ;
(PID.TID 0000.0001) PTRACERS_SOM_Advection = /* tracer uses SOM advection scheme */
(PID.TID 0000.0001)                   F
(PID.TID 0000.0001)     ;
(PID.TID 0000.0001) PTRACERS_ImplVertAdv = /* implicit vert. advection flag */
(PID.TID 0000.0001)                   F
(PID.TID 0000.0001)     ;
(PID.TID 0000.0001) PTRACERS_diffKh = /* Laplacian Diffusivity */
(PID.TID 0000.0001)                 0.000000000000000E+00
(PID.TID 0000.0001)     ;
(PID.TID 0000.0001) PTRACERS_diffK4 = /* Biharmonic Diffusivity */
(PID.TID 0000.0001)                 0.000000000000000E+00
(PID.TID 0000.0001)     ;
(PID.TID 0000.0001) PTRACERS_diffKrNr = /* Vertical Diffusivity */
(PID.TID 0000.0001)    35 @  1.000000000000000E-05              /* K =  1: 35 */
(PID.TID 0000.0001)     ;
(PID.TID 0000.0001) PTRACERS_useGMRedi = /* apply GM-Redi */
(PID.TID 0000.0001)                   F
(PID.TID 0000.0001)     ;
(PID.TID 0000.0001) PTRACERS_useDWNSLP = /* apply DOWN-SLOPE Flow */
(PID.TID 0000.0001)                   F
(PID.TID 0000.0001)     ;
(PID.TID 0000.0001) PTRACERS_useKPP = /* apply KPP scheme */
(PID.TID 0000.0001)                   T
(PID.TID 0000.0001)     ;
(PID.TID 0000.0001) PTRACERS_ref = /* Reference vertical profile */
(PID.TID 0000.0001)     5 @  1.000000000000000E+00,             /* K =  1:  5 */
(PID.TID 0000.0001)    30 @  0.000000000000000E+00              /* K =  6: 35 */
(PID.TID 0000.0001)     ;
(PID.TID 0000.0001) PTRACERS_EvPrRn =/* tracer conc. in Evap. & Rain */
(PID.TID 0000.0001)                 1.234567000000000E+05
(PID.TID 0000.0001)     ;
(PID.TID 0000.0001)  -----------------------------------
(PID.TID 0000.0001)  tracer number :   23
(PID.TID 0000.0001) PTRACERS_names = /* Tracer short name */
(PID.TID 0000.0001)               'c06'
(PID.TID 0000.0001)     ;
(PID.TID 0000.0001) PTRACERS_long_names = /* Tracer long name */
(PID.TID 0000.0001)               ''
(PID.TID 0000.0001)     ;
(PID.TID 0000.0001) PTRACERS_ioLabel = /* tracer IO Label */
(PID.TID 0000.0001)               '23'
(PID.TID 0000.0001)     ;
(PID.TID 0000.0001) PTRACERS_advScheme = /* Advection Scheme */
(PID.TID 0000.0001)                      33
(PID.TID 0000.0001)     ;
(PID.TID 0000.0001) PTRACERS_SOM_Advection = /* tracer uses SOM advection scheme */
(PID.TID 0000.0001)                   F
(PID.TID 0000.0001)     ;
(PID.TID 0000.0001) PTRACERS_ImplVertAdv = /* implicit vert. advection flag */
(PID.TID 0000.0001)                   F
(PID.TID 0000.0001)     ;
(PID.TID 0000.0001) PTRACERS_diffKh = /* Laplacian Diffusivity */
(PID.TID 0000.0001)                 0.000000000000000E+00
(PID.TID 0000.0001)     ;
(PID.TID 0000.0001) PTRACERS_diffK4 = /* Biharmonic Diffusivity */
(PID.TID 0000.0001)                 0.000000000000000E+00
(PID.TID 0000.0001)     ;
(PID.TID 0000.0001) PTRACERS_diffKrNr = /* Vertical Diffusivity */
(PID.TID 0000.0001)    35 @  1.000000000000000E-05              /* K =  1: 35 */
(PID.TID 0000.0001)     ;
(PID.TID 0000.0001) PTRACERS_useGMRedi = /* apply GM-Redi */
(PID.TID 0000.0001)                   F
(PID.TID 0000.0001)     ;
(PID.TID 0000.0001) PTRACERS_useDWNSLP = /* apply DOWN-SLOPE Flow */
(PID.TID 0000.0001)                   F
(PID.TID 0000.0001)     ;
(PID.TID 0000.0001) PTRACERS_useKPP = /* apply KPP scheme */
(PID.TID 0000.0001)                   T
(PID.TID 0000.0001)     ;
(PID.TID 0000.0001) PTRACERS_ref = /* Reference vertical profile */
(PID.TID 0000.0001)     5 @  1.000000000000000E+00,             /* K =  1:  5 */
(PID.TID 0000.0001)    30 @  0.000000000000000E+00              /* K =  6: 35 */
(PID.TID 0000.0001)     ;
(PID.TID 0000.0001) PTRACERS_EvPrRn =/* tracer conc. in Evap. & Rain */
(PID.TID 0000.0001)                 1.234567000000000E+05
(PID.TID 0000.0001)     ;
(PID.TID 0000.0001)  -----------------------------------
(PID.TID 0000.0001)  tracer number :   24
(PID.TID 0000.0001) PTRACERS_names = /* Tracer short name */
(PID.TID 0000.0001)               'c07'
(PID.TID 0000.0001)     ;
(PID.TID 0000.0001) PTRACERS_long_names = /* Tracer long name */
(PID.TID 0000.0001)               ''
(PID.TID 0000.0001)     ;
(PID.TID 0000.0001) PTRACERS_ioLabel = /* tracer IO Label */
(PID.TID 0000.0001)               '24'
(PID.TID 0000.0001)     ;
(PID.TID 0000.0001) PTRACERS_advScheme = /* Advection Scheme */
(PID.TID 0000.0001)                      33
(PID.TID 0000.0001)     ;
(PID.TID 0000.0001) PTRACERS_SOM_Advection = /* tracer uses SOM advection scheme */
(PID.TID 0000.0001)                   F
(PID.TID 0000.0001)     ;
(PID.TID 0000.0001) PTRACERS_ImplVertAdv = /* implicit vert. advection flag */
(PID.TID 0000.0001)                   F
(PID.TID 0000.0001)     ;
(PID.TID 0000.0001) PTRACERS_diffKh = /* Laplacian Diffusivity */
(PID.TID 0000.0001)                 0.000000000000000E+00
(PID.TID 0000.0001)     ;
(PID.TID 0000.0001) PTRACERS_diffK4 = /* Biharmonic Diffusivity */
(PID.TID 0000.0001)                 0.000000000000000E+00
(PID.TID 0000.0001)     ;
(PID.TID 0000.0001) PTRACERS_diffKrNr = /* Vertical Diffusivity */
(PID.TID 0000.0001)    35 @  1.000000000000000E-05              /* K =  1: 35 */
(PID.TID 0000.0001)     ;
(PID.TID 0000.0001) PTRACERS_useGMRedi = /* apply GM-Redi */
(PID.TID 0000.0001)                   F
(PID.TID 0000.0001)     ;
(PID.TID 0000.0001) PTRACERS_useDWNSLP = /* apply DOWN-SLOPE Flow */
(PID.TID 0000.0001)                   F
(PID.TID 0000.0001)     ;
(PID.TID 0000.0001) PTRACERS_useKPP = /* apply KPP scheme */
(PID.TID 0000.0001)                   T
(PID.TID 0000.0001)     ;
(PID.TID 0000.0001) PTRACERS_ref = /* Reference vertical profile */
(PID.TID 0000.0001)     5 @  1.000000000000000E+00,             /* K =  1:  5 */
(PID.TID 0000.0001)    30 @  0.000000000000000E+00              /* K =  6: 35 */
(PID.TID 0000.0001)     ;
(PID.TID 0000.0001) PTRACERS_EvPrRn =/* tracer conc. in Evap. & Rain */
(PID.TID 0000.0001)                 1.234567000000000E+05
(PID.TID 0000.0001)     ;
(PID.TID 0000.0001)  -----------------------------------
(PID.TID 0000.0001)  tracer number :   25
(PID.TID 0000.0001) PTRACERS_names = /* Tracer short name */
(PID.TID 0000.0001)               'c08'
(PID.TID 0000.0001)     ;
(PID.TID 0000.0001) PTRACERS_long_names = /* Tracer long name */
(PID.TID 0000.0001)               ''
(PID.TID 0000.0001)     ;
(PID.TID 0000.0001) PTRACERS_ioLabel = /* tracer IO Label */
(PID.TID 0000.0001)               '25'
(PID.TID 0000.0001)     ;
(PID.TID 0000.0001) PTRACERS_advScheme = /* Advection Scheme */
(PID.TID 0000.0001)                      33
(PID.TID 0000.0001)     ;
(PID.TID 0000.0001) PTRACERS_SOM_Advection = /* tracer uses SOM advection scheme */
(PID.TID 0000.0001)                   F
(PID.TID 0000.0001)     ;
(PID.TID 0000.0001) PTRACERS_ImplVertAdv = /* implicit vert. advection flag */
(PID.TID 0000.0001)                   F
(PID.TID 0000.0001)     ;
(PID.TID 0000.0001) PTRACERS_diffKh = /* Laplacian Diffusivity */
(PID.TID 0000.0001)                 0.000000000000000E+00
(PID.TID 0000.0001)     ;
(PID.TID 0000.0001) PTRACERS_diffK4 = /* Biharmonic Diffusivity */
(PID.TID 0000.0001)                 0.000000000000000E+00
(PID.TID 0000.0001)     ;
(PID.TID 0000.0001) PTRACERS_diffKrNr = /* Vertical Diffusivity */
(PID.TID 0000.0001)    35 @  1.000000000000000E-05              /* K =  1: 35 */
(PID.TID 0000.0001)     ;
(PID.TID 0000.0001) PTRACERS_useGMRedi = /* apply GM-Redi */
(PID.TID 0000.0001)                   F
(PID.TID 0000.0001)     ;
(PID.TID 0000.0001) PTRACERS_useDWNSLP = /* apply DOWN-SLOPE Flow */
(PID.TID 0000.0001)                   F
(PID.TID 0000.0001)     ;
(PID.TID 0000.0001) PTRACERS_useKPP = /* apply KPP scheme */
(PID.TID 0000.0001)                   T
(PID.TID 0000.0001)     ;
(PID.TID 0000.0001) PTRACERS_ref = /* Reference vertical profile */
(PID.TID 0000.0001)     5 @  1.000000000000000E+00,             /* K =  1:  5 */
(PID.TID 0000.0001)    30 @  0.000000000000000E+00              /* K =  6: 35 */
(PID.TID 0000.0001)     ;
(PID.TID 0000.0001) PTRACERS_EvPrRn =/* tracer conc. in Evap. & Rain */
(PID.TID 0000.0001)                 1.234567000000000E+05
(PID.TID 0000.0001)     ;
(PID.TID 0000.0001)  -----------------------------------
(PID.TID 0000.0001)  tracer number :   26
(PID.TID 0000.0001) PTRACERS_names = /* Tracer short name */
(PID.TID 0000.0001)               'c09'
(PID.TID 0000.0001)     ;
(PID.TID 0000.0001) PTRACERS_long_names = /* Tracer long name */
(PID.TID 0000.0001)               ''
(PID.TID 0000.0001)     ;
(PID.TID 0000.0001) PTRACERS_ioLabel = /* tracer IO Label */
(PID.TID 0000.0001)               '26'
(PID.TID 0000.0001)     ;
(PID.TID 0000.0001) PTRACERS_advScheme = /* Advection Scheme */
(PID.TID 0000.0001)                      33
(PID.TID 0000.0001)     ;
(PID.TID 0000.0001) PTRACERS_SOM_Advection = /* tracer uses SOM advection scheme */
(PID.TID 0000.0001)                   F
(PID.TID 0000.0001)     ;
(PID.TID 0000.0001) PTRACERS_ImplVertAdv = /* implicit vert. advection flag */
(PID.TID 0000.0001)                   F
(PID.TID 0000.0001)     ;
(PID.TID 0000.0001) PTRACERS_diffKh = /* Laplacian Diffusivity */
(PID.TID 0000.0001)                 0.000000000000000E+00
(PID.TID 0000.0001)     ;
(PID.TID 0000.0001) PTRACERS_diffK4 = /* Biharmonic Diffusivity */
(PID.TID 0000.0001)                 0.000000000000000E+00
(PID.TID 0000.0001)     ;
(PID.TID 0000.0001) PTRACERS_diffKrNr = /* Vertical Diffusivity */
(PID.TID 0000.0001)    35 @  1.000000000000000E-05              /* K =  1: 35 */
(PID.TID 0000.0001)     ;
(PID.TID 0000.0001) PTRACERS_useGMRedi = /* apply GM-Redi */
(PID.TID 0000.0001)                   F
(PID.TID 0000.0001)     ;
(PID.TID 0000.0001) PTRACERS_useDWNSLP = /* apply DOWN-SLOPE Flow */
(PID.TID 0000.0001)                   F
(PID.TID 0000.0001)     ;
(PID.TID 0000.0001) PTRACERS_useKPP = /* apply KPP scheme */
(PID.TID 0000.0001)                   T
(PID.TID 0000.0001)     ;
(PID.TID 0000.0001) PTRACERS_ref = /* Reference vertical profile */
(PID.TID 0000.0001)     5 @  1.000000000000000E+00,             /* K =  1:  5 */
(PID.TID 0000.0001)    30 @  0.000000000000000E+00              /* K =  6: 35 */
(PID.TID 0000.0001)     ;
(PID.TID 0000.0001) PTRACERS_EvPrRn =/* tracer conc. in Evap. & Rain */
(PID.TID 0000.0001)                 1.234567000000000E+05
(PID.TID 0000.0001)     ;
(PID.TID 0000.0001)  -----------------------------------
(PID.TID 0000.0001)  tracer number :   27
(PID.TID 0000.0001) PTRACERS_names = /* Tracer short name */
(PID.TID 0000.0001)               'c10'
(PID.TID 0000.0001)     ;
(PID.TID 0000.0001) PTRACERS_long_names = /* Tracer long name */
(PID.TID 0000.0001)               ''
(PID.TID 0000.0001)     ;
(PID.TID 0000.0001) PTRACERS_ioLabel = /* tracer IO Label */
(PID.TID 0000.0001)               '27'
(PID.TID 0000.0001)     ;
(PID.TID 0000.0001) PTRACERS_advScheme = /* Advection Scheme */
(PID.TID 0000.0001)                      33
(PID.TID 0000.0001)     ;
(PID.TID 0000.0001) PTRACERS_SOM_Advection = /* tracer uses SOM advection scheme */
(PID.TID 0000.0001)                   F
(PID.TID 0000.0001)     ;
(PID.TID 0000.0001) PTRACERS_ImplVertAdv = /* implicit vert. advection flag */
(PID.TID 0000.0001)                   F
(PID.TID 0000.0001)     ;
(PID.TID 0000.0001) PTRACERS_diffKh = /* Laplacian Diffusivity */
(PID.TID 0000.0001)                 0.000000000000000E+00
(PID.TID 0000.0001)     ;
(PID.TID 0000.0001) PTRACERS_diffK4 = /* Biharmonic Diffusivity */
(PID.TID 0000.0001)                 0.000000000000000E+00
(PID.TID 0000.0001)     ;
(PID.TID 0000.0001) PTRACERS_diffKrNr = /* Vertical Diffusivity */
(PID.TID 0000.0001)    35 @  1.000000000000000E-05              /* K =  1: 35 */
(PID.TID 0000.0001)     ;
(PID.TID 0000.0001) PTRACERS_useGMRedi = /* apply GM-Redi */
(PID.TID 0000.0001)                   F
(PID.TID 0000.0001)     ;
(PID.TID 0000.0001) PTRACERS_useDWNSLP = /* apply DOWN-SLOPE Flow */
(PID.TID 0000.0001)                   F
(PID.TID 0000.0001)     ;
(PID.TID 0000.0001) PTRACERS_useKPP = /* apply KPP scheme */
(PID.TID 0000.0001)                   T
(PID.TID 0000.0001)     ;
(PID.TID 0000.0001) PTRACERS_ref = /* Reference vertical profile */
(PID.TID 0000.0001)     5 @  1.000000000000000E+00,             /* K =  1:  5 */
(PID.TID 0000.0001)    30 @  0.000000000000000E+00              /* K =  6: 35 */
(PID.TID 0000.0001)     ;
(PID.TID 0000.0001) PTRACERS_EvPrRn =/* tracer conc. in Evap. & Rain */
(PID.TID 0000.0001)                 1.234567000000000E+05
(PID.TID 0000.0001)     ;
(PID.TID 0000.0001)  -----------------------------------
(PID.TID 0000.0001)  tracer number :   28
(PID.TID 0000.0001) PTRACERS_names = /* Tracer short name */
(PID.TID 0000.0001)               'c11'
(PID.TID 0000.0001)     ;
(PID.TID 0000.0001) PTRACERS_long_names = /* Tracer long name */
(PID.TID 0000.0001)               ''
(PID.TID 0000.0001)     ;
(PID.TID 0000.0001) PTRACERS_ioLabel = /* tracer IO Label */
(PID.TID 0000.0001)               '28'
(PID.TID 0000.0001)     ;
(PID.TID 0000.0001) PTRACERS_advScheme = /* Advection Scheme */
(PID.TID 0000.0001)                      33
(PID.TID 0000.0001)     ;
(PID.TID 0000.0001) PTRACERS_SOM_Advection = /* tracer uses SOM advection scheme */
(PID.TID 0000.0001)                   F
(PID.TID 0000.0001)     ;
(PID.TID 0000.0001) PTRACERS_ImplVertAdv = /* implicit vert. advection flag */
(PID.TID 0000.0001)                   F
(PID.TID 0000.0001)     ;
(PID.TID 0000.0001) PTRACERS_diffKh = /* Laplacian Diffusivity */
(PID.TID 0000.0001)                 0.000000000000000E+00
(PID.TID 0000.0001)     ;
(PID.TID 0000.0001) PTRACERS_diffK4 = /* Biharmonic Diffusivity */
(PID.TID 0000.0001)                 0.000000000000000E+00
(PID.TID 0000.0001)     ;
(PID.TID 0000.0001) PTRACERS_diffKrNr = /* Vertical Diffusivity */
(PID.TID 0000.0001)    35 @  1.000000000000000E-05              /* K =  1: 35 */
(PID.TID 0000.0001)     ;
(PID.TID 0000.0001) PTRACERS_useGMRedi = /* apply GM-Redi */
(PID.TID 0000.0001)                   F
(PID.TID 0000.0001)     ;
(PID.TID 0000.0001) PTRACERS_useDWNSLP = /* apply DOWN-SLOPE Flow */
(PID.TID 0000.0001)                   F
(PID.TID 0000.0001)     ;
(PID.TID 0000.0001) PTRACERS_useKPP = /* apply KPP scheme */
(PID.TID 0000.0001)                   T
(PID.TID 0000.0001)     ;
(PID.TID 0000.0001) PTRACERS_ref = /* Reference vertical profile */
(PID.TID 0000.0001)     5 @  1.000000000000000E+00,             /* K =  1:  5 */
(PID.TID 0000.0001)    30 @  0.000000000000000E+00              /* K =  6: 35 */
(PID.TID 0000.0001)     ;
(PID.TID 0000.0001) PTRACERS_EvPrRn =/* tracer conc. in Evap. & Rain */
(PID.TID 0000.0001)                 1.234567000000000E+05
(PID.TID 0000.0001)     ;
(PID.TID 0000.0001)  -----------------------------------
(PID.TID 0000.0001)  tracer number :   29
(PID.TID 0000.0001) PTRACERS_names = /* Tracer short name */
(PID.TID 0000.0001)               'c12'
(PID.TID 0000.0001)     ;
(PID.TID 0000.0001) PTRACERS_long_names = /* Tracer long name */
(PID.TID 0000.0001)               ''
(PID.TID 0000.0001)     ;
(PID.TID 0000.0001) PTRACERS_ioLabel = /* tracer IO Label */
(PID.TID 0000.0001)               '29'
(PID.TID 0000.0001)     ;
(PID.TID 0000.0001) PTRACERS_advScheme = /* Advection Scheme */
(PID.TID 0000.0001)                      33
(PID.TID 0000.0001)     ;
(PID.TID 0000.0001) PTRACERS_SOM_Advection = /* tracer uses SOM advection scheme */
(PID.TID 0000.0001)                   F
(PID.TID 0000.0001)     ;
(PID.TID 0000.0001) PTRACERS_ImplVertAdv = /* implicit vert. advection flag */
(PID.TID 0000.0001)                   F
(PID.TID 0000.0001)     ;
(PID.TID 0000.0001) PTRACERS_diffKh = /* Laplacian Diffusivity */
(PID.TID 0000.0001)                 0.000000000000000E+00
(PID.TID 0000.0001)     ;
(PID.TID 0000.0001) PTRACERS_diffK4 = /* Biharmonic Diffusivity */
(PID.TID 0000.0001)                 0.000000000000000E+00
(PID.TID 0000.0001)     ;
(PID.TID 0000.0001) PTRACERS_diffKrNr = /* Vertical Diffusivity */
(PID.TID 0000.0001)    35 @  1.000000000000000E-05              /* K =  1: 35 */
(PID.TID 0000.0001)     ;
(PID.TID 0000.0001) PTRACERS_useGMRedi = /* apply GM-Redi */
(PID.TID 0000.0001)                   F
(PID.TID 0000.0001)     ;
(PID.TID 0000.0001) PTRACERS_useDWNSLP = /* apply DOWN-SLOPE Flow */
(PID.TID 0000.0001)                   F
(PID.TID 0000.0001)     ;
(PID.TID 0000.0001) PTRACERS_useKPP = /* apply KPP scheme */
(PID.TID 0000.0001)                   T
(PID.TID 0000.0001)     ;
(PID.TID 0000.0001) PTRACERS_ref = /* Reference vertical profile */
(PID.TID 0000.0001)     5 @  1.000000000000000E+00,             /* K =  1:  5 */
(PID.TID 0000.0001)    30 @  0.000000000000000E+00              /* K =  6: 35 */
(PID.TID 0000.0001)     ;
(PID.TID 0000.0001) PTRACERS_EvPrRn =/* tracer conc. in Evap. & Rain */
(PID.TID 0000.0001)                 1.234567000000000E+05
(PID.TID 0000.0001)     ;
(PID.TID 0000.0001)  -----------------------------------
(PID.TID 0000.0001)  tracer number :   30
(PID.TID 0000.0001) PTRACERS_names = /* Tracer short name */
(PID.TID 0000.0001)               'c13'
(PID.TID 0000.0001)     ;
(PID.TID 0000.0001) PTRACERS_long_names = /* Tracer long name */
(PID.TID 0000.0001)               ''
(PID.TID 0000.0001)     ;
(PID.TID 0000.0001) PTRACERS_ioLabel = /* tracer IO Label */
(PID.TID 0000.0001)               '30'
(PID.TID 0000.0001)     ;
(PID.TID 0000.0001) PTRACERS_advScheme = /* Advection Scheme */
(PID.TID 0000.0001)                      33
(PID.TID 0000.0001)     ;
(PID.TID 0000.0001) PTRACERS_SOM_Advection = /* tracer uses SOM advection scheme */
(PID.TID 0000.0001)                   F
(PID.TID 0000.0001)     ;
(PID.TID 0000.0001) PTRACERS_ImplVertAdv = /* implicit vert. advection flag */
(PID.TID 0000.0001)                   F
(PID.TID 0000.0001)     ;
(PID.TID 0000.0001) PTRACERS_diffKh = /* Laplacian Diffusivity */
(PID.TID 0000.0001)                 0.000000000000000E+00
(PID.TID 0000.0001)     ;
(PID.TID 0000.0001) PTRACERS_diffK4 = /* Biharmonic Diffusivity */
(PID.TID 0000.0001)                 0.000000000000000E+00
(PID.TID 0000.0001)     ;
(PID.TID 0000.0001) PTRACERS_diffKrNr = /* Vertical Diffusivity */
(PID.TID 0000.0001)    35 @  1.000000000000000E-05              /* K =  1: 35 */
(PID.TID 0000.0001)     ;
(PID.TID 0000.0001) PTRACERS_useGMRedi = /* apply GM-Redi */
(PID.TID 0000.0001)                   F
(PID.TID 0000.0001)     ;
(PID.TID 0000.0001) PTRACERS_useDWNSLP = /* apply DOWN-SLOPE Flow */
(PID.TID 0000.0001)                   F
(PID.TID 0000.0001)     ;
(PID.TID 0000.0001) PTRACERS_useKPP = /* apply KPP scheme */
(PID.TID 0000.0001)                   T
(PID.TID 0000.0001)     ;
(PID.TID 0000.0001) PTRACERS_ref = /* Reference vertical profile */
(PID.TID 0000.0001)     5 @  1.000000000000000E+00,             /* K =  1:  5 */
(PID.TID 0000.0001)    30 @  0.000000000000000E+00              /* K =  6: 35 */
(PID.TID 0000.0001)     ;
(PID.TID 0000.0001) PTRACERS_EvPrRn =/* tracer conc. in Evap. & Rain */
(PID.TID 0000.0001)                 1.234567000000000E+05
(PID.TID 0000.0001)     ;
(PID.TID 0000.0001)  -----------------------------------
(PID.TID 0000.0001)  tracer number :   31
(PID.TID 0000.0001) PTRACERS_names = /* Tracer short name */
(PID.TID 0000.0001)               'c14'
(PID.TID 0000.0001)     ;
(PID.TID 0000.0001) PTRACERS_long_names = /* Tracer long name */
(PID.TID 0000.0001)               ''
(PID.TID 0000.0001)     ;
(PID.TID 0000.0001) PTRACERS_ioLabel = /* tracer IO Label */
(PID.TID 0000.0001)               '31'
(PID.TID 0000.0001)     ;
(PID.TID 0000.0001) PTRACERS_advScheme = /* Advection Scheme */
(PID.TID 0000.0001)                      33
(PID.TID 0000.0001)     ;
(PID.TID 0000.0001) PTRACERS_SOM_Advection = /* tracer uses SOM advection scheme */
(PID.TID 0000.0001)                   F
(PID.TID 0000.0001)     ;
(PID.TID 0000.0001) PTRACERS_ImplVertAdv = /* implicit vert. advection flag */
(PID.TID 0000.0001)                   F
(PID.TID 0000.0001)     ;
(PID.TID 0000.0001) PTRACERS_diffKh = /* Laplacian Diffusivity */
(PID.TID 0000.0001)                 0.000000000000000E+00
(PID.TID 0000.0001)     ;
(PID.TID 0000.0001) PTRACERS_diffK4 = /* Biharmonic Diffusivity */
(PID.TID 0000.0001)                 0.000000000000000E+00
(PID.TID 0000.0001)     ;
(PID.TID 0000.0001) PTRACERS_diffKrNr = /* Vertical Diffusivity */
(PID.TID 0000.0001)    35 @  1.000000000000000E-05              /* K =  1: 35 */
(PID.TID 0000.0001)     ;
(PID.TID 0000.0001) PTRACERS_useGMRedi = /* apply GM-Redi */
(PID.TID 0000.0001)                   F
(PID.TID 0000.0001)     ;
(PID.TID 0000.0001) PTRACERS_useDWNSLP = /* apply DOWN-SLOPE Flow */
(PID.TID 0000.0001)                   F
(PID.TID 0000.0001)     ;
(PID.TID 0000.0001) PTRACERS_useKPP = /* apply KPP scheme */
(PID.TID 0000.0001)                   T
(PID.TID 0000.0001)     ;
(PID.TID 0000.0001) PTRACERS_ref = /* Reference vertical profile */
(PID.TID 0000.0001)     5 @  1.000000000000000E+00,             /* K =  1:  5 */
(PID.TID 0000.0001)    30 @  0.000000000000000E+00              /* K =  6: 35 */
(PID.TID 0000.0001)     ;
(PID.TID 0000.0001) PTRACERS_EvPrRn =/* tracer conc. in Evap. & Rain */
(PID.TID 0000.0001)                 1.234567000000000E+05
(PID.TID 0000.0001)     ;
(PID.TID 0000.0001)  -----------------------------------
(PID.TID 0000.0001)  tracer number :   32
(PID.TID 0000.0001) PTRACERS_names = /* Tracer short name */
(PID.TID 0000.0001)               'c15'
(PID.TID 0000.0001)     ;
(PID.TID 0000.0001) PTRACERS_long_names = /* Tracer long name */
(PID.TID 0000.0001)               ''
(PID.TID 0000.0001)     ;
(PID.TID 0000.0001) PTRACERS_ioLabel = /* tracer IO Label */
(PID.TID 0000.0001)               '32'
(PID.TID 0000.0001)     ;
(PID.TID 0000.0001) PTRACERS_advScheme = /* Advection Scheme */
(PID.TID 0000.0001)                      33
(PID.TID 0000.0001)     ;
(PID.TID 0000.0001) PTRACERS_SOM_Advection = /* tracer uses SOM advection scheme */
(PID.TID 0000.0001)                   F
(PID.TID 0000.0001)     ;
(PID.TID 0000.0001) PTRACERS_ImplVertAdv = /* implicit vert. advection flag */
(PID.TID 0000.0001)                   F
(PID.TID 0000.0001)     ;
(PID.TID 0000.0001) PTRACERS_diffKh = /* Laplacian Diffusivity */
(PID.TID 0000.0001)                 0.000000000000000E+00
(PID.TID 0000.0001)     ;
(PID.TID 0000.0001) PTRACERS_diffK4 = /* Biharmonic Diffusivity */
(PID.TID 0000.0001)                 0.000000000000000E+00
(PID.TID 0000.0001)     ;
(PID.TID 0000.0001) PTRACERS_diffKrNr = /* Vertical Diffusivity */
(PID.TID 0000.0001)    35 @  1.000000000000000E-05              /* K =  1: 35 */
(PID.TID 0000.0001)     ;
(PID.TID 0000.0001) PTRACERS_useGMRedi = /* apply GM-Redi */
(PID.TID 0000.0001)                   F
(PID.TID 0000.0001)     ;
(PID.TID 0000.0001) PTRACERS_useDWNSLP = /* apply DOWN-SLOPE Flow */
(PID.TID 0000.0001)                   F
(PID.TID 0000.0001)     ;
(PID.TID 0000.0001) PTRACERS_useKPP = /* apply KPP scheme */
(PID.TID 0000.0001)                   T
(PID.TID 0000.0001)     ;
(PID.TID 0000.0001) PTRACERS_ref = /* Reference vertical profile */
(PID.TID 0000.0001)     5 @  1.000000000000000E+00,             /* K =  1:  5 */
(PID.TID 0000.0001)    30 @  0.000000000000000E+00              /* K =  6: 35 */
(PID.TID 0000.0001)     ;
(PID.TID 0000.0001) PTRACERS_EvPrRn =/* tracer conc. in Evap. & Rain */
(PID.TID 0000.0001)                 1.234567000000000E+05
(PID.TID 0000.0001)     ;
(PID.TID 0000.0001)  -----------------------------------
(PID.TID 0000.0001)  tracer number :   33
(PID.TID 0000.0001) PTRACERS_names = /* Tracer short name */
(PID.TID 0000.0001)               'c16'
(PID.TID 0000.0001)     ;
(PID.TID 0000.0001) PTRACERS_long_names = /* Tracer long name */
(PID.TID 0000.0001)               ''
(PID.TID 0000.0001)     ;
(PID.TID 0000.0001) PTRACERS_ioLabel = /* tracer IO Label */
(PID.TID 0000.0001)               '33'
(PID.TID 0000.0001)     ;
(PID.TID 0000.0001) PTRACERS_advScheme = /* Advection Scheme */
(PID.TID 0000.0001)                      33
(PID.TID 0000.0001)     ;
(PID.TID 0000.0001) PTRACERS_SOM_Advection = /* tracer uses SOM advection scheme */
(PID.TID 0000.0001)                   F
(PID.TID 0000.0001)     ;
(PID.TID 0000.0001) PTRACERS_ImplVertAdv = /* implicit vert. advection flag */
(PID.TID 0000.0001)                   F
(PID.TID 0000.0001)     ;
(PID.TID 0000.0001) PTRACERS_diffKh = /* Laplacian Diffusivity */
(PID.TID 0000.0001)                 0.000000000000000E+00
(PID.TID 0000.0001)     ;
(PID.TID 0000.0001) PTRACERS_diffK4 = /* Biharmonic Diffusivity */
(PID.TID 0000.0001)                 0.000000000000000E+00
(PID.TID 0000.0001)     ;
(PID.TID 0000.0001) PTRACERS_diffKrNr = /* Vertical Diffusivity */
(PID.TID 0000.0001)    35 @  1.000000000000000E-05              /* K =  1: 35 */
(PID.TID 0000.0001)     ;
(PID.TID 0000.0001) PTRACERS_useGMRedi = /* apply GM-Redi */
(PID.TID 0000.0001)                   F
(PID.TID 0000.0001)     ;
(PID.TID 0000.0001) PTRACERS_useDWNSLP = /* apply DOWN-SLOPE Flow */
(PID.TID 0000.0001)                   F
(PID.TID 0000.0001)     ;
(PID.TID 0000.0001) PTRACERS_useKPP = /* apply KPP scheme */
(PID.TID 0000.0001)                   T
(PID.TID 0000.0001)     ;
(PID.TID 0000.0001) PTRACERS_ref = /* Reference vertical profile */
(PID.TID 0000.0001)     5 @  1.000000000000000E+00,             /* K =  1:  5 */
(PID.TID 0000.0001)    30 @  0.000000000000000E+00              /* K =  6: 35 */
(PID.TID 0000.0001)     ;
(PID.TID 0000.0001) PTRACERS_EvPrRn =/* tracer conc. in Evap. & Rain */
(PID.TID 0000.0001)                 1.234567000000000E+05
(PID.TID 0000.0001)     ;
(PID.TID 0000.0001)  -----------------------------------
(PID.TID 0000.0001)  tracer number :   34
(PID.TID 0000.0001) PTRACERS_names = /* Tracer short name */
(PID.TID 0000.0001)               'n01'
(PID.TID 0000.0001)     ;
(PID.TID 0000.0001) PTRACERS_long_names = /* Tracer long name */
(PID.TID 0000.0001)               ''
(PID.TID 0000.0001)     ;
(PID.TID 0000.0001) PTRACERS_ioLabel = /* tracer IO Label */
(PID.TID 0000.0001)               '34'
(PID.TID 0000.0001)     ;
(PID.TID 0000.0001) PTRACERS_advScheme = /* Advection Scheme */
(PID.TID 0000.0001)                      33
(PID.TID 0000.0001)     ;
(PID.TID 0000.0001) PTRACERS_SOM_Advection = /* tracer uses SOM advection scheme */
(PID.TID 0000.0001)                   F
(PID.TID 0000.0001)     ;
(PID.TID 0000.0001) PTRACERS_ImplVertAdv = /* implicit vert. advection flag */
(PID.TID 0000.0001)                   F
(PID.TID 0000.0001)     ;
(PID.TID 0000.0001) PTRACERS_diffKh = /* Laplacian Diffusivity */
(PID.TID 0000.0001)                 0.000000000000000E+00
(PID.TID 0000.0001)     ;
(PID.TID 0000.0001) PTRACERS_diffK4 = /* Biharmonic Diffusivity */
(PID.TID 0000.0001)                 0.000000000000000E+00
(PID.TID 0000.0001)     ;
(PID.TID 0000.0001) PTRACERS_diffKrNr = /* Vertical Diffusivity */
(PID.TID 0000.0001)    35 @  1.000000000000000E-05              /* K =  1: 35 */
(PID.TID 0000.0001)     ;
(PID.TID 0000.0001) PTRACERS_useGMRedi = /* apply GM-Redi */
(PID.TID 0000.0001)                   F
(PID.TID 0000.0001)     ;
(PID.TID 0000.0001) PTRACERS_useDWNSLP = /* apply DOWN-SLOPE Flow */
(PID.TID 0000.0001)                   F
(PID.TID 0000.0001)     ;
(PID.TID 0000.0001) PTRACERS_useKPP = /* apply KPP scheme */
(PID.TID 0000.0001)                   T
(PID.TID 0000.0001)     ;
(PID.TID 0000.0001) PTRACERS_ref = /* Reference vertical profile */
(PID.TID 0000.0001)     5 @  1.333330000000000E-01,             /* K =  1:  5 */
(PID.TID 0000.0001)    30 @  0.000000000000000E+00              /* K =  6: 35 */
(PID.TID 0000.0001)     ;
(PID.TID 0000.0001) PTRACERS_EvPrRn =/* tracer conc. in Evap. & Rain */
(PID.TID 0000.0001)                 1.234567000000000E+05
(PID.TID 0000.0001)     ;
(PID.TID 0000.0001)  -----------------------------------
(PID.TID 0000.0001)  tracer number :   35
(PID.TID 0000.0001) PTRACERS_names = /* Tracer short name */
(PID.TID 0000.0001)               'n02'
(PID.TID 0000.0001)     ;
(PID.TID 0000.0001) PTRACERS_long_names = /* Tracer long name */
(PID.TID 0000.0001)               ''
(PID.TID 0000.0001)     ;
(PID.TID 0000.0001) PTRACERS_ioLabel = /* tracer IO Label */
(PID.TID 0000.0001)               '35'
(PID.TID 0000.0001)     ;
(PID.TID 0000.0001) PTRACERS_advScheme = /* Advection Scheme */
(PID.TID 0000.0001)                      33
(PID.TID 0000.0001)     ;
(PID.TID 0000.0001) PTRACERS_SOM_Advection = /* tracer uses SOM advection scheme */
(PID.TID 0000.0001)                   F
(PID.TID 0000.0001)     ;
(PID.TID 0000.0001) PTRACERS_ImplVertAdv = /* implicit vert. advection flag */
(PID.TID 0000.0001)                   F
(PID.TID 0000.0001)     ;
(PID.TID 0000.0001) PTRACERS_diffKh = /* Laplacian Diffusivity */
(PID.TID 0000.0001)                 0.000000000000000E+00
(PID.TID 0000.0001)     ;
(PID.TID 0000.0001) PTRACERS_diffK4 = /* Biharmonic Diffusivity */
(PID.TID 0000.0001)                 0.000000000000000E+00
(PID.TID 0000.0001)     ;
(PID.TID 0000.0001) PTRACERS_diffKrNr = /* Vertical Diffusivity */
(PID.TID 0000.0001)    35 @  1.000000000000000E-05              /* K =  1: 35 */
(PID.TID 0000.0001)     ;
(PID.TID 0000.0001) PTRACERS_useGMRedi = /* apply GM-Redi */
(PID.TID 0000.0001)                   F
(PID.TID 0000.0001)     ;
(PID.TID 0000.0001) PTRACERS_useDWNSLP = /* apply DOWN-SLOPE Flow */
(PID.TID 0000.0001)                   F
(PID.TID 0000.0001)     ;
(PID.TID 0000.0001) PTRACERS_useKPP = /* apply KPP scheme */
(PID.TID 0000.0001)                   T
(PID.TID 0000.0001)     ;
(PID.TID 0000.0001) PTRACERS_ref = /* Reference vertical profile */
(PID.TID 0000.0001)     5 @  1.333330000000000E-01,             /* K =  1:  5 */
(PID.TID 0000.0001)    30 @  0.000000000000000E+00              /* K =  6: 35 */
(PID.TID 0000.0001)     ;
(PID.TID 0000.0001) PTRACERS_EvPrRn =/* tracer conc. in Evap. & Rain */
(PID.TID 0000.0001)                 1.234567000000000E+05
(PID.TID 0000.0001)     ;
(PID.TID 0000.0001)  -----------------------------------
(PID.TID 0000.0001)  tracer number :   36
(PID.TID 0000.0001) PTRACERS_names = /* Tracer short name */
(PID.TID 0000.0001)               'n03'
(PID.TID 0000.0001)     ;
(PID.TID 0000.0001) PTRACERS_long_names = /* Tracer long name */
(PID.TID 0000.0001)               ''
(PID.TID 0000.0001)     ;
(PID.TID 0000.0001) PTRACERS_ioLabel = /* tracer IO Label */
(PID.TID 0000.0001)               '36'
(PID.TID 0000.0001)     ;
(PID.TID 0000.0001) PTRACERS_advScheme = /* Advection Scheme */
(PID.TID 0000.0001)                      33
(PID.TID 0000.0001)     ;
(PID.TID 0000.0001) PTRACERS_SOM_Advection = /* tracer uses SOM advection scheme */
(PID.TID 0000.0001)                   F
(PID.TID 0000.0001)     ;
(PID.TID 0000.0001) PTRACERS_ImplVertAdv = /* implicit vert. advection flag */
(PID.TID 0000.0001)                   F
(PID.TID 0000.0001)     ;
(PID.TID 0000.0001) PTRACERS_diffKh = /* Laplacian Diffusivity */
(PID.TID 0000.0001)                 0.000000000000000E+00
(PID.TID 0000.0001)     ;
(PID.TID 0000.0001) PTRACERS_diffK4 = /* Biharmonic Diffusivity */
(PID.TID 0000.0001)                 0.000000000000000E+00
(PID.TID 0000.0001)     ;
(PID.TID 0000.0001) PTRACERS_diffKrNr = /* Vertical Diffusivity */
(PID.TID 0000.0001)    35 @  1.000000000000000E-05              /* K =  1: 35 */
(PID.TID 0000.0001)     ;
(PID.TID 0000.0001) PTRACERS_useGMRedi = /* apply GM-Redi */
(PID.TID 0000.0001)                   F
(PID.TID 0000.0001)     ;
(PID.TID 0000.0001) PTRACERS_useDWNSLP = /* apply DOWN-SLOPE Flow */
(PID.TID 0000.0001)                   F
(PID.TID 0000.0001)     ;
(PID.TID 0000.0001) PTRACERS_useKPP = /* apply KPP scheme */
(PID.TID 0000.0001)                   T
(PID.TID 0000.0001)     ;
(PID.TID 0000.0001) PTRACERS_ref = /* Reference vertical profile */
(PID.TID 0000.0001)     5 @  1.333330000000000E-01,             /* K =  1:  5 */
(PID.TID 0000.0001)    30 @  0.000000000000000E+00              /* K =  6: 35 */
(PID.TID 0000.0001)     ;
(PID.TID 0000.0001) PTRACERS_EvPrRn =/* tracer conc. in Evap. & Rain */
(PID.TID 0000.0001)                 1.234567000000000E+05
(PID.TID 0000.0001)     ;
(PID.TID 0000.0001)  -----------------------------------
(PID.TID 0000.0001)  tracer number :   37
(PID.TID 0000.0001) PTRACERS_names = /* Tracer short name */
(PID.TID 0000.0001)               'n04'
(PID.TID 0000.0001)     ;
(PID.TID 0000.0001) PTRACERS_long_names = /* Tracer long name */
(PID.TID 0000.0001)               ''
(PID.TID 0000.0001)     ;
(PID.TID 0000.0001) PTRACERS_ioLabel = /* tracer IO Label */
(PID.TID 0000.0001)               '37'
(PID.TID 0000.0001)     ;
(PID.TID 0000.0001) PTRACERS_advScheme = /* Advection Scheme */
(PID.TID 0000.0001)                      33
(PID.TID 0000.0001)     ;
(PID.TID 0000.0001) PTRACERS_SOM_Advection = /* tracer uses SOM advection scheme */
(PID.TID 0000.0001)                   F
(PID.TID 0000.0001)     ;
(PID.TID 0000.0001) PTRACERS_ImplVertAdv = /* implicit vert. advection flag */
(PID.TID 0000.0001)                   F
(PID.TID 0000.0001)     ;
(PID.TID 0000.0001) PTRACERS_diffKh = /* Laplacian Diffusivity */
(PID.TID 0000.0001)                 0.000000000000000E+00
(PID.TID 0000.0001)     ;
(PID.TID 0000.0001) PTRACERS_diffK4 = /* Biharmonic Diffusivity */
(PID.TID 0000.0001)                 0.000000000000000E+00
(PID.TID 0000.0001)     ;
(PID.TID 0000.0001) PTRACERS_diffKrNr = /* Vertical Diffusivity */
(PID.TID 0000.0001)    35 @  1.000000000000000E-05              /* K =  1: 35 */
(PID.TID 0000.0001)     ;
(PID.TID 0000.0001) PTRACERS_useGMRedi = /* apply GM-Redi */
(PID.TID 0000.0001)                   F
(PID.TID 0000.0001)     ;
(PID.TID 0000.0001) PTRACERS_useDWNSLP = /* apply DOWN-SLOPE Flow */
(PID.TID 0000.0001)                   F
(PID.TID 0000.0001)     ;
(PID.TID 0000.0001) PTRACERS_useKPP = /* apply KPP scheme */
(PID.TID 0000.0001)                   T
(PID.TID 0000.0001)     ;
(PID.TID 0000.0001) PTRACERS_ref = /* Reference vertical profile */
(PID.TID 0000.0001)     5 @  1.333330000000000E-01,             /* K =  1:  5 */
(PID.TID 0000.0001)    30 @  0.000000000000000E+00              /* K =  6: 35 */
(PID.TID 0000.0001)     ;
(PID.TID 0000.0001) PTRACERS_EvPrRn =/* tracer conc. in Evap. & Rain */
(PID.TID 0000.0001)                 1.234567000000000E+05
(PID.TID 0000.0001)     ;
(PID.TID 0000.0001)  -----------------------------------
(PID.TID 0000.0001)  tracer number :   38
(PID.TID 0000.0001) PTRACERS_names = /* Tracer short name */
(PID.TID 0000.0001)               'n05'
(PID.TID 0000.0001)     ;
(PID.TID 0000.0001) PTRACERS_long_names = /* Tracer long name */
(PID.TID 0000.0001)               ''
(PID.TID 0000.0001)     ;
(PID.TID 0000.0001) PTRACERS_ioLabel = /* tracer IO Label */
(PID.TID 0000.0001)               '38'
(PID.TID 0000.0001)     ;
(PID.TID 0000.0001) PTRACERS_advScheme = /* Advection Scheme */
(PID.TID 0000.0001)                      33
(PID.TID 0000.0001)     ;
(PID.TID 0000.0001) PTRACERS_SOM_Advection = /* tracer uses SOM advection scheme */
(PID.TID 0000.0001)                   F
(PID.TID 0000.0001)     ;
(PID.TID 0000.0001) PTRACERS_ImplVertAdv = /* implicit vert. advection flag */
(PID.TID 0000.0001)                   F
(PID.TID 0000.0001)     ;
(PID.TID 0000.0001) PTRACERS_diffKh = /* Laplacian Diffusivity */
(PID.TID 0000.0001)                 0.000000000000000E+00
(PID.TID 0000.0001)     ;
(PID.TID 0000.0001) PTRACERS_diffK4 = /* Biharmonic Diffusivity */
(PID.TID 0000.0001)                 0.000000000000000E+00
(PID.TID 0000.0001)     ;
(PID.TID 0000.0001) PTRACERS_diffKrNr = /* Vertical Diffusivity */
(PID.TID 0000.0001)    35 @  1.000000000000000E-05              /* K =  1: 35 */
(PID.TID 0000.0001)     ;
(PID.TID 0000.0001) PTRACERS_useGMRedi = /* apply GM-Redi */
(PID.TID 0000.0001)                   F
(PID.TID 0000.0001)     ;
(PID.TID 0000.0001) PTRACERS_useDWNSLP = /* apply DOWN-SLOPE Flow */
(PID.TID 0000.0001)                   F
(PID.TID 0000.0001)     ;
(PID.TID 0000.0001) PTRACERS_useKPP = /* apply KPP scheme */
(PID.TID 0000.0001)                   T
(PID.TID 0000.0001)     ;
(PID.TID 0000.0001) PTRACERS_ref = /* Reference vertical profile */
(PID.TID 0000.0001)     5 @  1.333330000000000E-01,             /* K =  1:  5 */
(PID.TID 0000.0001)    30 @  0.000000000000000E+00              /* K =  6: 35 */
(PID.TID 0000.0001)     ;
(PID.TID 0000.0001) PTRACERS_EvPrRn =/* tracer conc. in Evap. & Rain */
(PID.TID 0000.0001)                 1.234567000000000E+05
(PID.TID 0000.0001)     ;
(PID.TID 0000.0001)  -----------------------------------
(PID.TID 0000.0001)  tracer number :   39
(PID.TID 0000.0001) PTRACERS_names = /* Tracer short name */
(PID.TID 0000.0001)               'n06'
(PID.TID 0000.0001)     ;
(PID.TID 0000.0001) PTRACERS_long_names = /* Tracer long name */
(PID.TID 0000.0001)               ''
(PID.TID 0000.0001)     ;
(PID.TID 0000.0001) PTRACERS_ioLabel = /* tracer IO Label */
(PID.TID 0000.0001)               '39'
(PID.TID 0000.0001)     ;
(PID.TID 0000.0001) PTRACERS_advScheme = /* Advection Scheme */
(PID.TID 0000.0001)                      33
(PID.TID 0000.0001)     ;
(PID.TID 0000.0001) PTRACERS_SOM_Advection = /* tracer uses SOM advection scheme */
(PID.TID 0000.0001)                   F
(PID.TID 0000.0001)     ;
(PID.TID 0000.0001) PTRACERS_ImplVertAdv = /* implicit vert. advection flag */
(PID.TID 0000.0001)                   F
(PID.TID 0000.0001)     ;
(PID.TID 0000.0001) PTRACERS_diffKh = /* Laplacian Diffusivity */
(PID.TID 0000.0001)                 0.000000000000000E+00
(PID.TID 0000.0001)     ;
(PID.TID 0000.0001) PTRACERS_diffK4 = /* Biharmonic Diffusivity */
(PID.TID 0000.0001)                 0.000000000000000E+00
(PID.TID 0000.0001)     ;
(PID.TID 0000.0001) PTRACERS_diffKrNr = /* Vertical Diffusivity */
(PID.TID 0000.0001)    35 @  1.000000000000000E-05              /* K =  1: 35 */
(PID.TID 0000.0001)     ;
(PID.TID 0000.0001) PTRACERS_useGMRedi = /* apply GM-Redi */
(PID.TID 0000.0001)                   F
(PID.TID 0000.0001)     ;
(PID.TID 0000.0001) PTRACERS_useDWNSLP = /* apply DOWN-SLOPE Flow */
(PID.TID 0000.0001)                   F
(PID.TID 0000.0001)     ;
(PID.TID 0000.0001) PTRACERS_useKPP = /* apply KPP scheme */
(PID.TID 0000.0001)                   T
(PID.TID 0000.0001)     ;
(PID.TID 0000.0001) PTRACERS_ref = /* Reference vertical profile */
(PID.TID 0000.0001)     5 @  1.333330000000000E-01,             /* K =  1:  5 */
(PID.TID 0000.0001)    30 @  0.000000000000000E+00              /* K =  6: 35 */
(PID.TID 0000.0001)     ;
(PID.TID 0000.0001) PTRACERS_EvPrRn =/* tracer conc. in Evap. & Rain */
(PID.TID 0000.0001)                 1.234567000000000E+05
(PID.TID 0000.0001)     ;
(PID.TID 0000.0001)  -----------------------------------
(PID.TID 0000.0001)  tracer number :   40
(PID.TID 0000.0001) PTRACERS_names = /* Tracer short name */
(PID.TID 0000.0001)               'n07'
(PID.TID 0000.0001)     ;
(PID.TID 0000.0001) PTRACERS_long_names = /* Tracer long name */
(PID.TID 0000.0001)               ''
(PID.TID 0000.0001)     ;
(PID.TID 0000.0001) PTRACERS_ioLabel = /* tracer IO Label */
(PID.TID 0000.0001)               '40'
(PID.TID 0000.0001)     ;
(PID.TID 0000.0001) PTRACERS_advScheme = /* Advection Scheme */
(PID.TID 0000.0001)                      33
(PID.TID 0000.0001)     ;
(PID.TID 0000.0001) PTRACERS_SOM_Advection = /* tracer uses SOM advection scheme */
(PID.TID 0000.0001)                   F
(PID.TID 0000.0001)     ;
(PID.TID 0000.0001) PTRACERS_ImplVertAdv = /* implicit vert. advection flag */
(PID.TID 0000.0001)                   F
(PID.TID 0000.0001)     ;
(PID.TID 0000.0001) PTRACERS_diffKh = /* Laplacian Diffusivity */
(PID.TID 0000.0001)                 0.000000000000000E+00
(PID.TID 0000.0001)     ;
(PID.TID 0000.0001) PTRACERS_diffK4 = /* Biharmonic Diffusivity */
(PID.TID 0000.0001)                 0.000000000000000E+00
(PID.TID 0000.0001)     ;
(PID.TID 0000.0001) PTRACERS_diffKrNr = /* Vertical Diffusivity */
(PID.TID 0000.0001)    35 @  1.000000000000000E-05              /* K =  1: 35 */
(PID.TID 0000.0001)     ;
(PID.TID 0000.0001) PTRACERS_useGMRedi = /* apply GM-Redi */
(PID.TID 0000.0001)                   F
(PID.TID 0000.0001)     ;
(PID.TID 0000.0001) PTRACERS_useDWNSLP = /* apply DOWN-SLOPE Flow */
(PID.TID 0000.0001)                   F
(PID.TID 0000.0001)     ;
(PID.TID 0000.0001) PTRACERS_useKPP = /* apply KPP scheme */
(PID.TID 0000.0001)                   T
(PID.TID 0000.0001)     ;
(PID.TID 0000.0001) PTRACERS_ref = /* Reference vertical profile */
(PID.TID 0000.0001)     5 @  1.333330000000000E-01,             /* K =  1:  5 */
(PID.TID 0000.0001)    30 @  0.000000000000000E+00              /* K =  6: 35 */
(PID.TID 0000.0001)     ;
(PID.TID 0000.0001) PTRACERS_EvPrRn =/* tracer conc. in Evap. & Rain */
(PID.TID 0000.0001)                 1.234567000000000E+05
(PID.TID 0000.0001)     ;
(PID.TID 0000.0001)  -----------------------------------
(PID.TID 0000.0001)  tracer number :   41
(PID.TID 0000.0001) PTRACERS_names = /* Tracer short name */
(PID.TID 0000.0001)               'n08'
(PID.TID 0000.0001)     ;
(PID.TID 0000.0001) PTRACERS_long_names = /* Tracer long name */
(PID.TID 0000.0001)               ''
(PID.TID 0000.0001)     ;
(PID.TID 0000.0001) PTRACERS_ioLabel = /* tracer IO Label */
(PID.TID 0000.0001)               '41'
(PID.TID 0000.0001)     ;
(PID.TID 0000.0001) PTRACERS_advScheme = /* Advection Scheme */
(PID.TID 0000.0001)                      33
(PID.TID 0000.0001)     ;
(PID.TID 0000.0001) PTRACERS_SOM_Advection = /* tracer uses SOM advection scheme */
(PID.TID 0000.0001)                   F
(PID.TID 0000.0001)     ;
(PID.TID 0000.0001) PTRACERS_ImplVertAdv = /* implicit vert. advection flag */
(PID.TID 0000.0001)                   F
(PID.TID 0000.0001)     ;
(PID.TID 0000.0001) PTRACERS_diffKh = /* Laplacian Diffusivity */
(PID.TID 0000.0001)                 0.000000000000000E+00
(PID.TID 0000.0001)     ;
(PID.TID 0000.0001) PTRACERS_diffK4 = /* Biharmonic Diffusivity */
(PID.TID 0000.0001)                 0.000000000000000E+00
(PID.TID 0000.0001)     ;
(PID.TID 0000.0001) PTRACERS_diffKrNr = /* Vertical Diffusivity */
(PID.TID 0000.0001)    35 @  1.000000000000000E-05              /* K =  1: 35 */
(PID.TID 0000.0001)     ;
(PID.TID 0000.0001) PTRACERS_useGMRedi = /* apply GM-Redi */
(PID.TID 0000.0001)                   F
(PID.TID 0000.0001)     ;
(PID.TID 0000.0001) PTRACERS_useDWNSLP = /* apply DOWN-SLOPE Flow */
(PID.TID 0000.0001)                   F
(PID.TID 0000.0001)     ;
(PID.TID 0000.0001) PTRACERS_useKPP = /* apply KPP scheme */
(PID.TID 0000.0001)                   T
(PID.TID 0000.0001)     ;
(PID.TID 0000.0001) PTRACERS_ref = /* Reference vertical profile */
(PID.TID 0000.0001)     5 @  1.333330000000000E-01,             /* K =  1:  5 */
(PID.TID 0000.0001)    30 @  0.000000000000000E+00              /* K =  6: 35 */
(PID.TID 0000.0001)     ;
(PID.TID 0000.0001) PTRACERS_EvPrRn =/* tracer conc. in Evap. & Rain */
(PID.TID 0000.0001)                 1.234567000000000E+05
(PID.TID 0000.0001)     ;
(PID.TID 0000.0001)  -----------------------------------
(PID.TID 0000.0001)  tracer number :   42
(PID.TID 0000.0001) PTRACERS_names = /* Tracer short name */
(PID.TID 0000.0001)               'n09'
(PID.TID 0000.0001)     ;
(PID.TID 0000.0001) PTRACERS_long_names = /* Tracer long name */
(PID.TID 0000.0001)               ''
(PID.TID 0000.0001)     ;
(PID.TID 0000.0001) PTRACERS_ioLabel = /* tracer IO Label */
(PID.TID 0000.0001)               '42'
(PID.TID 0000.0001)     ;
(PID.TID 0000.0001) PTRACERS_advScheme = /* Advection Scheme */
(PID.TID 0000.0001)                      33
(PID.TID 0000.0001)     ;
(PID.TID 0000.0001) PTRACERS_SOM_Advection = /* tracer uses SOM advection scheme */
(PID.TID 0000.0001)                   F
(PID.TID 0000.0001)     ;
(PID.TID 0000.0001) PTRACERS_ImplVertAdv = /* implicit vert. advection flag */
(PID.TID 0000.0001)                   F
(PID.TID 0000.0001)     ;
(PID.TID 0000.0001) PTRACERS_diffKh = /* Laplacian Diffusivity */
(PID.TID 0000.0001)                 0.000000000000000E+00
(PID.TID 0000.0001)     ;
(PID.TID 0000.0001) PTRACERS_diffK4 = /* Biharmonic Diffusivity */
(PID.TID 0000.0001)                 0.000000000000000E+00
(PID.TID 0000.0001)     ;
(PID.TID 0000.0001) PTRACERS_diffKrNr = /* Vertical Diffusivity */
(PID.TID 0000.0001)    35 @  1.000000000000000E-05              /* K =  1: 35 */
(PID.TID 0000.0001)     ;
(PID.TID 0000.0001) PTRACERS_useGMRedi = /* apply GM-Redi */
(PID.TID 0000.0001)                   F
(PID.TID 0000.0001)     ;
(PID.TID 0000.0001) PTRACERS_useDWNSLP = /* apply DOWN-SLOPE Flow */
(PID.TID 0000.0001)                   F
(PID.TID 0000.0001)     ;
(PID.TID 0000.0001) PTRACERS_useKPP = /* apply KPP scheme */
(PID.TID 0000.0001)                   T
(PID.TID 0000.0001)     ;
(PID.TID 0000.0001) PTRACERS_ref = /* Reference vertical profile */
(PID.TID 0000.0001)     5 @  1.333330000000000E-01,             /* K =  1:  5 */
(PID.TID 0000.0001)    30 @  0.000000000000000E+00              /* K =  6: 35 */
(PID.TID 0000.0001)     ;
(PID.TID 0000.0001) PTRACERS_EvPrRn =/* tracer conc. in Evap. & Rain */
(PID.TID 0000.0001)                 1.234567000000000E+05
(PID.TID 0000.0001)     ;
(PID.TID 0000.0001)  -----------------------------------
(PID.TID 0000.0001)  tracer number :   43
(PID.TID 0000.0001) PTRACERS_names = /* Tracer short name */
(PID.TID 0000.0001)               'n10'
(PID.TID 0000.0001)     ;
(PID.TID 0000.0001) PTRACERS_long_names = /* Tracer long name */
(PID.TID 0000.0001)               ''
(PID.TID 0000.0001)     ;
(PID.TID 0000.0001) PTRACERS_ioLabel = /* tracer IO Label */
(PID.TID 0000.0001)               '43'
(PID.TID 0000.0001)     ;
(PID.TID 0000.0001) PTRACERS_advScheme = /* Advection Scheme */
(PID.TID 0000.0001)                      33
(PID.TID 0000.0001)     ;
(PID.TID 0000.0001) PTRACERS_SOM_Advection = /* tracer uses SOM advection scheme */
(PID.TID 0000.0001)                   F
(PID.TID 0000.0001)     ;
(PID.TID 0000.0001) PTRACERS_ImplVertAdv = /* implicit vert. advection flag */
(PID.TID 0000.0001)                   F
(PID.TID 0000.0001)     ;
(PID.TID 0000.0001) PTRACERS_diffKh = /* Laplacian Diffusivity */
(PID.TID 0000.0001)                 0.000000000000000E+00
(PID.TID 0000.0001)     ;
(PID.TID 0000.0001) PTRACERS_diffK4 = /* Biharmonic Diffusivity */
(PID.TID 0000.0001)                 0.000000000000000E+00
(PID.TID 0000.0001)     ;
(PID.TID 0000.0001) PTRACERS_diffKrNr = /* Vertical Diffusivity */
(PID.TID 0000.0001)    35 @  1.000000000000000E-05              /* K =  1: 35 */
(PID.TID 0000.0001)     ;
(PID.TID 0000.0001) PTRACERS_useGMRedi = /* apply GM-Redi */
(PID.TID 0000.0001)                   F
(PID.TID 0000.0001)     ;
(PID.TID 0000.0001) PTRACERS_useDWNSLP = /* apply DOWN-SLOPE Flow */
(PID.TID 0000.0001)                   F
(PID.TID 0000.0001)     ;
(PID.TID 0000.0001) PTRACERS_useKPP = /* apply KPP scheme */
(PID.TID 0000.0001)                   T
(PID.TID 0000.0001)     ;
(PID.TID 0000.0001) PTRACERS_ref = /* Reference vertical profile */
(PID.TID 0000.0001)     5 @  1.333330000000000E-01,             /* K =  1:  5 */
(PID.TID 0000.0001)    30 @  0.000000000000000E+00              /* K =  6: 35 */
(PID.TID 0000.0001)     ;
(PID.TID 0000.0001) PTRACERS_EvPrRn =/* tracer conc. in Evap. & Rain */
(PID.TID 0000.0001)                 1.234567000000000E+05
(PID.TID 0000.0001)     ;
(PID.TID 0000.0001)  -----------------------------------
(PID.TID 0000.0001)  tracer number :   44
(PID.TID 0000.0001) PTRACERS_names = /* Tracer short name */
(PID.TID 0000.0001)               'n11'
(PID.TID 0000.0001)     ;
(PID.TID 0000.0001) PTRACERS_long_names = /* Tracer long name */
(PID.TID 0000.0001)               ''
(PID.TID 0000.0001)     ;
(PID.TID 0000.0001) PTRACERS_ioLabel = /* tracer IO Label */
(PID.TID 0000.0001)               '44'
(PID.TID 0000.0001)     ;
(PID.TID 0000.0001) PTRACERS_advScheme = /* Advection Scheme */
(PID.TID 0000.0001)                      33
(PID.TID 0000.0001)     ;
(PID.TID 0000.0001) PTRACERS_SOM_Advection = /* tracer uses SOM advection scheme */
(PID.TID 0000.0001)                   F
(PID.TID 0000.0001)     ;
(PID.TID 0000.0001) PTRACERS_ImplVertAdv = /* implicit vert. advection flag */
(PID.TID 0000.0001)                   F
(PID.TID 0000.0001)     ;
(PID.TID 0000.0001) PTRACERS_diffKh = /* Laplacian Diffusivity */
(PID.TID 0000.0001)                 0.000000000000000E+00
(PID.TID 0000.0001)     ;
(PID.TID 0000.0001) PTRACERS_diffK4 = /* Biharmonic Diffusivity */
(PID.TID 0000.0001)                 0.000000000000000E+00
(PID.TID 0000.0001)     ;
(PID.TID 0000.0001) PTRACERS_diffKrNr = /* Vertical Diffusivity */
(PID.TID 0000.0001)    35 @  1.000000000000000E-05              /* K =  1: 35 */
(PID.TID 0000.0001)     ;
(PID.TID 0000.0001) PTRACERS_useGMRedi = /* apply GM-Redi */
(PID.TID 0000.0001)                   F
(PID.TID 0000.0001)     ;
(PID.TID 0000.0001) PTRACERS_useDWNSLP = /* apply DOWN-SLOPE Flow */
(PID.TID 0000.0001)                   F
(PID.TID 0000.0001)     ;
(PID.TID 0000.0001) PTRACERS_useKPP = /* apply KPP scheme */
(PID.TID 0000.0001)                   T
(PID.TID 0000.0001)     ;
(PID.TID 0000.0001) PTRACERS_ref = /* Reference vertical profile */
(PID.TID 0000.0001)     5 @  1.333330000000000E-01,             /* K =  1:  5 */
(PID.TID 0000.0001)    30 @  0.000000000000000E+00              /* K =  6: 35 */
(PID.TID 0000.0001)     ;
(PID.TID 0000.0001) PTRACERS_EvPrRn =/* tracer conc. in Evap. & Rain */
(PID.TID 0000.0001)                 1.234567000000000E+05
(PID.TID 0000.0001)     ;
(PID.TID 0000.0001)  -----------------------------------
(PID.TID 0000.0001)  tracer number :   45
(PID.TID 0000.0001) PTRACERS_names = /* Tracer short name */
(PID.TID 0000.0001)               'n12'
(PID.TID 0000.0001)     ;
(PID.TID 0000.0001) PTRACERS_long_names = /* Tracer long name */
(PID.TID 0000.0001)               ''
(PID.TID 0000.0001)     ;
(PID.TID 0000.0001) PTRACERS_ioLabel = /* tracer IO Label */
(PID.TID 0000.0001)               '45'
(PID.TID 0000.0001)     ;
(PID.TID 0000.0001) PTRACERS_advScheme = /* Advection Scheme */
(PID.TID 0000.0001)                      33
(PID.TID 0000.0001)     ;
(PID.TID 0000.0001) PTRACERS_SOM_Advection = /* tracer uses SOM advection scheme */
(PID.TID 0000.0001)                   F
(PID.TID 0000.0001)     ;
(PID.TID 0000.0001) PTRACERS_ImplVertAdv = /* implicit vert. advection flag */
(PID.TID 0000.0001)                   F
(PID.TID 0000.0001)     ;
(PID.TID 0000.0001) PTRACERS_diffKh = /* Laplacian Diffusivity */
(PID.TID 0000.0001)                 0.000000000000000E+00
(PID.TID 0000.0001)     ;
(PID.TID 0000.0001) PTRACERS_diffK4 = /* Biharmonic Diffusivity */
(PID.TID 0000.0001)                 0.000000000000000E+00
(PID.TID 0000.0001)     ;
(PID.TID 0000.0001) PTRACERS_diffKrNr = /* Vertical Diffusivity */
(PID.TID 0000.0001)    35 @  1.000000000000000E-05              /* K =  1: 35 */
(PID.TID 0000.0001)     ;
(PID.TID 0000.0001) PTRACERS_useGMRedi = /* apply GM-Redi */
(PID.TID 0000.0001)                   F
(PID.TID 0000.0001)     ;
(PID.TID 0000.0001) PTRACERS_useDWNSLP = /* apply DOWN-SLOPE Flow */
(PID.TID 0000.0001)                   F
(PID.TID 0000.0001)     ;
(PID.TID 0000.0001) PTRACERS_useKPP = /* apply KPP scheme */
(PID.TID 0000.0001)                   T
(PID.TID 0000.0001)     ;
(PID.TID 0000.0001) PTRACERS_ref = /* Reference vertical profile */
(PID.TID 0000.0001)     5 @  1.333330000000000E-01,             /* K =  1:  5 */
(PID.TID 0000.0001)    30 @  0.000000000000000E+00              /* K =  6: 35 */
(PID.TID 0000.0001)     ;
(PID.TID 0000.0001) PTRACERS_EvPrRn =/* tracer conc. in Evap. & Rain */
(PID.TID 0000.0001)                 1.234567000000000E+05
(PID.TID 0000.0001)     ;
(PID.TID 0000.0001)  -----------------------------------
(PID.TID 0000.0001)  tracer number :   46
(PID.TID 0000.0001) PTRACERS_names = /* Tracer short name */
(PID.TID 0000.0001)               'n13'
(PID.TID 0000.0001)     ;
(PID.TID 0000.0001) PTRACERS_long_names = /* Tracer long name */
(PID.TID 0000.0001)               ''
(PID.TID 0000.0001)     ;
(PID.TID 0000.0001) PTRACERS_ioLabel = /* tracer IO Label */
(PID.TID 0000.0001)               '46'
(PID.TID 0000.0001)     ;
(PID.TID 0000.0001) PTRACERS_advScheme = /* Advection Scheme */
(PID.TID 0000.0001)                      33
(PID.TID 0000.0001)     ;
(PID.TID 0000.0001) PTRACERS_SOM_Advection = /* tracer uses SOM advection scheme */
(PID.TID 0000.0001)                   F
(PID.TID 0000.0001)     ;
(PID.TID 0000.0001) PTRACERS_ImplVertAdv = /* implicit vert. advection flag */
(PID.TID 0000.0001)                   F
(PID.TID 0000.0001)     ;
(PID.TID 0000.0001) PTRACERS_diffKh = /* Laplacian Diffusivity */
(PID.TID 0000.0001)                 0.000000000000000E+00
(PID.TID 0000.0001)     ;
(PID.TID 0000.0001) PTRACERS_diffK4 = /* Biharmonic Diffusivity */
(PID.TID 0000.0001)                 0.000000000000000E+00
(PID.TID 0000.0001)     ;
(PID.TID 0000.0001) PTRACERS_diffKrNr = /* Vertical Diffusivity */
(PID.TID 0000.0001)    35 @  1.000000000000000E-05              /* K =  1: 35 */
(PID.TID 0000.0001)     ;
(PID.TID 0000.0001) PTRACERS_useGMRedi = /* apply GM-Redi */
(PID.TID 0000.0001)                   F
(PID.TID 0000.0001)     ;
(PID.TID 0000.0001) PTRACERS_useDWNSLP = /* apply DOWN-SLOPE Flow */
(PID.TID 0000.0001)                   F
(PID.TID 0000.0001)     ;
(PID.TID 0000.0001) PTRACERS_useKPP = /* apply KPP scheme */
(PID.TID 0000.0001)                   T
(PID.TID 0000.0001)     ;
(PID.TID 0000.0001) PTRACERS_ref = /* Reference vertical profile */
(PID.TID 0000.0001)     5 @  1.333330000000000E-01,             /* K =  1:  5 */
(PID.TID 0000.0001)    30 @  0.000000000000000E+00              /* K =  6: 35 */
(PID.TID 0000.0001)     ;
(PID.TID 0000.0001) PTRACERS_EvPrRn =/* tracer conc. in Evap. & Rain */
(PID.TID 0000.0001)                 1.234567000000000E+05
(PID.TID 0000.0001)     ;
(PID.TID 0000.0001)  -----------------------------------
(PID.TID 0000.0001)  tracer number :   47
(PID.TID 0000.0001) PTRACERS_names = /* Tracer short name */
(PID.TID 0000.0001)               'n14'
(PID.TID 0000.0001)     ;
(PID.TID 0000.0001) PTRACERS_long_names = /* Tracer long name */
(PID.TID 0000.0001)               ''
(PID.TID 0000.0001)     ;
(PID.TID 0000.0001) PTRACERS_ioLabel = /* tracer IO Label */
(PID.TID 0000.0001)               '47'
(PID.TID 0000.0001)     ;
(PID.TID 0000.0001) PTRACERS_advScheme = /* Advection Scheme */
(PID.TID 0000.0001)                      33
(PID.TID 0000.0001)     ;
(PID.TID 0000.0001) PTRACERS_SOM_Advection = /* tracer uses SOM advection scheme */
(PID.TID 0000.0001)                   F
(PID.TID 0000.0001)     ;
(PID.TID 0000.0001) PTRACERS_ImplVertAdv = /* implicit vert. advection flag */
(PID.TID 0000.0001)                   F
(PID.TID 0000.0001)     ;
(PID.TID 0000.0001) PTRACERS_diffKh = /* Laplacian Diffusivity */
(PID.TID 0000.0001)                 0.000000000000000E+00
(PID.TID 0000.0001)     ;
(PID.TID 0000.0001) PTRACERS_diffK4 = /* Biharmonic Diffusivity */
(PID.TID 0000.0001)                 0.000000000000000E+00
(PID.TID 0000.0001)     ;
(PID.TID 0000.0001) PTRACERS_diffKrNr = /* Vertical Diffusivity */
(PID.TID 0000.0001)    35 @  1.000000000000000E-05              /* K =  1: 35 */
(PID.TID 0000.0001)     ;
(PID.TID 0000.0001) PTRACERS_useGMRedi = /* apply GM-Redi */
(PID.TID 0000.0001)                   F
(PID.TID 0000.0001)     ;
(PID.TID 0000.0001) PTRACERS_useDWNSLP = /* apply DOWN-SLOPE Flow */
(PID.TID 0000.0001)                   F
(PID.TID 0000.0001)     ;
(PID.TID 0000.0001) PTRACERS_useKPP = /* apply KPP scheme */
(PID.TID 0000.0001)                   T
(PID.TID 0000.0001)     ;
(PID.TID 0000.0001) PTRACERS_ref = /* Reference vertical profile */
(PID.TID 0000.0001)     5 @  1.333330000000000E-01,             /* K =  1:  5 */
(PID.TID 0000.0001)    30 @  0.000000000000000E+00              /* K =  6: 35 */
(PID.TID 0000.0001)     ;
(PID.TID 0000.0001) PTRACERS_EvPrRn =/* tracer conc. in Evap. & Rain */
(PID.TID 0000.0001)                 1.234567000000000E+05
(PID.TID 0000.0001)     ;
(PID.TID 0000.0001)  -----------------------------------
(PID.TID 0000.0001)  tracer number :   48
(PID.TID 0000.0001) PTRACERS_names = /* Tracer short name */
(PID.TID 0000.0001)               'n15'
(PID.TID 0000.0001)     ;
(PID.TID 0000.0001) PTRACERS_long_names = /* Tracer long name */
(PID.TID 0000.0001)               ''
(PID.TID 0000.0001)     ;
(PID.TID 0000.0001) PTRACERS_ioLabel = /* tracer IO Label */
(PID.TID 0000.0001)               '48'
(PID.TID 0000.0001)     ;
(PID.TID 0000.0001) PTRACERS_advScheme = /* Advection Scheme */
(PID.TID 0000.0001)                      33
(PID.TID 0000.0001)     ;
(PID.TID 0000.0001) PTRACERS_SOM_Advection = /* tracer uses SOM advection scheme */
(PID.TID 0000.0001)                   F
(PID.TID 0000.0001)     ;
(PID.TID 0000.0001) PTRACERS_ImplVertAdv = /* implicit vert. advection flag */
(PID.TID 0000.0001)                   F
(PID.TID 0000.0001)     ;
(PID.TID 0000.0001) PTRACERS_diffKh = /* Laplacian Diffusivity */
(PID.TID 0000.0001)                 0.000000000000000E+00
(PID.TID 0000.0001)     ;
(PID.TID 0000.0001) PTRACERS_diffK4 = /* Biharmonic Diffusivity */
(PID.TID 0000.0001)                 0.000000000000000E+00
(PID.TID 0000.0001)     ;
(PID.TID 0000.0001) PTRACERS_diffKrNr = /* Vertical Diffusivity */
(PID.TID 0000.0001)    35 @  1.000000000000000E-05              /* K =  1: 35 */
(PID.TID 0000.0001)     ;
(PID.TID 0000.0001) PTRACERS_useGMRedi = /* apply GM-Redi */
(PID.TID 0000.0001)                   F
(PID.TID 0000.0001)     ;
(PID.TID 0000.0001) PTRACERS_useDWNSLP = /* apply DOWN-SLOPE Flow */
(PID.TID 0000.0001)                   F
(PID.TID 0000.0001)     ;
(PID.TID 0000.0001) PTRACERS_useKPP = /* apply KPP scheme */
(PID.TID 0000.0001)                   T
(PID.TID 0000.0001)     ;
(PID.TID 0000.0001) PTRACERS_ref = /* Reference vertical profile */
(PID.TID 0000.0001)     5 @  1.333330000000000E-01,             /* K =  1:  5 */
(PID.TID 0000.0001)    30 @  0.000000000000000E+00              /* K =  6: 35 */
(PID.TID 0000.0001)     ;
(PID.TID 0000.0001) PTRACERS_EvPrRn =/* tracer conc. in Evap. & Rain */
(PID.TID 0000.0001)                 1.234567000000000E+05
(PID.TID 0000.0001)     ;
(PID.TID 0000.0001)  -----------------------------------
(PID.TID 0000.0001)  tracer number :   49
(PID.TID 0000.0001) PTRACERS_names = /* Tracer short name */
(PID.TID 0000.0001)               'n16'
(PID.TID 0000.0001)     ;
(PID.TID 0000.0001) PTRACERS_long_names = /* Tracer long name */
(PID.TID 0000.0001)               ''
(PID.TID 0000.0001)     ;
(PID.TID 0000.0001) PTRACERS_ioLabel = /* tracer IO Label */
(PID.TID 0000.0001)               '49'
(PID.TID 0000.0001)     ;
(PID.TID 0000.0001) PTRACERS_advScheme = /* Advection Scheme */
(PID.TID 0000.0001)                      33
(PID.TID 0000.0001)     ;
(PID.TID 0000.0001) PTRACERS_SOM_Advection = /* tracer uses SOM advection scheme */
(PID.TID 0000.0001)                   F
(PID.TID 0000.0001)     ;
(PID.TID 0000.0001) PTRACERS_ImplVertAdv = /* implicit vert. advection flag */
(PID.TID 0000.0001)                   F
(PID.TID 0000.0001)     ;
(PID.TID 0000.0001) PTRACERS_diffKh = /* Laplacian Diffusivity */
(PID.TID 0000.0001)                 0.000000000000000E+00
(PID.TID 0000.0001)     ;
(PID.TID 0000.0001) PTRACERS_diffK4 = /* Biharmonic Diffusivity */
(PID.TID 0000.0001)                 0.000000000000000E+00
(PID.TID 0000.0001)     ;
(PID.TID 0000.0001) PTRACERS_diffKrNr = /* Vertical Diffusivity */
(PID.TID 0000.0001)    35 @  1.000000000000000E-05              /* K =  1: 35 */
(PID.TID 0000.0001)     ;
(PID.TID 0000.0001) PTRACERS_useGMRedi = /* apply GM-Redi */
(PID.TID 0000.0001)                   F
(PID.TID 0000.0001)     ;
(PID.TID 0000.0001) PTRACERS_useDWNSLP = /* apply DOWN-SLOPE Flow */
(PID.TID 0000.0001)                   F
(PID.TID 0000.0001)     ;
(PID.TID 0000.0001) PTRACERS_useKPP = /* apply KPP scheme */
(PID.TID 0000.0001)                   T
(PID.TID 0000.0001)     ;
(PID.TID 0000.0001) PTRACERS_ref = /* Reference vertical profile */
(PID.TID 0000.0001)     5 @  1.333330000000000E-01,             /* K =  1:  5 */
(PID.TID 0000.0001)    30 @  0.000000000000000E+00              /* K =  6: 35 */
(PID.TID 0000.0001)     ;
(PID.TID 0000.0001) PTRACERS_EvPrRn =/* tracer conc. in Evap. & Rain */
(PID.TID 0000.0001)                 1.234567000000000E+05
(PID.TID 0000.0001)     ;
(PID.TID 0000.0001)  -----------------------------------
(PID.TID 0000.0001)  tracer number :   50
(PID.TID 0000.0001) PTRACERS_names = /* Tracer short name */
(PID.TID 0000.0001)               'fe01'
(PID.TID 0000.0001)     ;
(PID.TID 0000.0001) PTRACERS_long_names = /* Tracer long name */
(PID.TID 0000.0001)               ''
(PID.TID 0000.0001)     ;
(PID.TID 0000.0001) PTRACERS_ioLabel = /* tracer IO Label */
(PID.TID 0000.0001)               '50'
(PID.TID 0000.0001)     ;
(PID.TID 0000.0001) PTRACERS_advScheme = /* Advection Scheme */
(PID.TID 0000.0001)                      33
(PID.TID 0000.0001)     ;
(PID.TID 0000.0001) PTRACERS_SOM_Advection = /* tracer uses SOM advection scheme */
(PID.TID 0000.0001)                   F
(PID.TID 0000.0001)     ;
(PID.TID 0000.0001) PTRACERS_ImplVertAdv = /* implicit vert. advection flag */
(PID.TID 0000.0001)                   F
(PID.TID 0000.0001)     ;
(PID.TID 0000.0001) PTRACERS_diffKh = /* Laplacian Diffusivity */
(PID.TID 0000.0001)                 0.000000000000000E+00
(PID.TID 0000.0001)     ;
(PID.TID 0000.0001) PTRACERS_diffK4 = /* Biharmonic Diffusivity */
(PID.TID 0000.0001)                 0.000000000000000E+00
(PID.TID 0000.0001)     ;
(PID.TID 0000.0001) PTRACERS_diffKrNr = /* Vertical Diffusivity */
(PID.TID 0000.0001)    35 @  1.000000000000000E-05              /* K =  1: 35 */
(PID.TID 0000.0001)     ;
(PID.TID 0000.0001) PTRACERS_useGMRedi = /* apply GM-Redi */
(PID.TID 0000.0001)                   F
(PID.TID 0000.0001)     ;
(PID.TID 0000.0001) PTRACERS_useDWNSLP = /* apply DOWN-SLOPE Flow */
(PID.TID 0000.0001)                   F
(PID.TID 0000.0001)     ;
(PID.TID 0000.0001) PTRACERS_useKPP = /* apply KPP scheme */
(PID.TID 0000.0001)                   T
(PID.TID 0000.0001)     ;
(PID.TID 0000.0001) PTRACERS_ref = /* Reference vertical profile */
(PID.TID 0000.0001)     5 @  1.000000000000000E-05,             /* K =  1:  5 */
(PID.TID 0000.0001)    30 @  0.000000000000000E+00              /* K =  6: 35 */
(PID.TID 0000.0001)     ;
(PID.TID 0000.0001) PTRACERS_EvPrRn =/* tracer conc. in Evap. & Rain */
(PID.TID 0000.0001)                 1.234567000000000E+05
(PID.TID 0000.0001)     ;
(PID.TID 0000.0001)  -----------------------------------
(PID.TID 0000.0001)  tracer number :   51
(PID.TID 0000.0001) PTRACERS_names = /* Tracer short name */
(PID.TID 0000.0001)               'fe02'
(PID.TID 0000.0001)     ;
(PID.TID 0000.0001) PTRACERS_long_names = /* Tracer long name */
(PID.TID 0000.0001)               ''
(PID.TID 0000.0001)     ;
(PID.TID 0000.0001) PTRACERS_ioLabel = /* tracer IO Label */
(PID.TID 0000.0001)               '51'
(PID.TID 0000.0001)     ;
(PID.TID 0000.0001) PTRACERS_advScheme = /* Advection Scheme */
(PID.TID 0000.0001)                      33
(PID.TID 0000.0001)     ;
(PID.TID 0000.0001) PTRACERS_SOM_Advection = /* tracer uses SOM advection scheme */
(PID.TID 0000.0001)                   F
(PID.TID 0000.0001)     ;
(PID.TID 0000.0001) PTRACERS_ImplVertAdv = /* implicit vert. advection flag */
(PID.TID 0000.0001)                   F
(PID.TID 0000.0001)     ;
(PID.TID 0000.0001) PTRACERS_diffKh = /* Laplacian Diffusivity */
(PID.TID 0000.0001)                 0.000000000000000E+00
(PID.TID 0000.0001)     ;
(PID.TID 0000.0001) PTRACERS_diffK4 = /* Biharmonic Diffusivity */
(PID.TID 0000.0001)                 0.000000000000000E+00
(PID.TID 0000.0001)     ;
(PID.TID 0000.0001) PTRACERS_diffKrNr = /* Vertical Diffusivity */
(PID.TID 0000.0001)    35 @  1.000000000000000E-05              /* K =  1: 35 */
(PID.TID 0000.0001)     ;
(PID.TID 0000.0001) PTRACERS_useGMRedi = /* apply GM-Redi */
(PID.TID 0000.0001)                   F
(PID.TID 0000.0001)     ;
(PID.TID 0000.0001) PTRACERS_useDWNSLP = /* apply DOWN-SLOPE Flow */
(PID.TID 0000.0001)                   F
(PID.TID 0000.0001)     ;
(PID.TID 0000.0001) PTRACERS_useKPP = /* apply KPP scheme */
(PID.TID 0000.0001)                   T
(PID.TID 0000.0001)     ;
(PID.TID 0000.0001) PTRACERS_ref = /* Reference vertical profile */
(PID.TID 0000.0001)     5 @  1.000000000000000E-05,             /* K =  1:  5 */
(PID.TID 0000.0001)    30 @  0.000000000000000E+00              /* K =  6: 35 */
(PID.TID 0000.0001)     ;
(PID.TID 0000.0001) PTRACERS_EvPrRn =/* tracer conc. in Evap. & Rain */
(PID.TID 0000.0001)                 1.234567000000000E+05
(PID.TID 0000.0001)     ;
(PID.TID 0000.0001)  -----------------------------------
(PID.TID 0000.0001)  tracer number :   52
(PID.TID 0000.0001) PTRACERS_names = /* Tracer short name */
(PID.TID 0000.0001)               'fe03'
(PID.TID 0000.0001)     ;
(PID.TID 0000.0001) PTRACERS_long_names = /* Tracer long name */
(PID.TID 0000.0001)               ''
(PID.TID 0000.0001)     ;
(PID.TID 0000.0001) PTRACERS_ioLabel = /* tracer IO Label */
(PID.TID 0000.0001)               '52'
(PID.TID 0000.0001)     ;
(PID.TID 0000.0001) PTRACERS_advScheme = /* Advection Scheme */
(PID.TID 0000.0001)                      33
(PID.TID 0000.0001)     ;
(PID.TID 0000.0001) PTRACERS_SOM_Advection = /* tracer uses SOM advection scheme */
(PID.TID 0000.0001)                   F
(PID.TID 0000.0001)     ;
(PID.TID 0000.0001) PTRACERS_ImplVertAdv = /* implicit vert. advection flag */
(PID.TID 0000.0001)                   F
(PID.TID 0000.0001)     ;
(PID.TID 0000.0001) PTRACERS_diffKh = /* Laplacian Diffusivity */
(PID.TID 0000.0001)                 0.000000000000000E+00
(PID.TID 0000.0001)     ;
(PID.TID 0000.0001) PTRACERS_diffK4 = /* Biharmonic Diffusivity */
(PID.TID 0000.0001)                 0.000000000000000E+00
(PID.TID 0000.0001)     ;
(PID.TID 0000.0001) PTRACERS_diffKrNr = /* Vertical Diffusivity */
(PID.TID 0000.0001)    35 @  1.000000000000000E-05              /* K =  1: 35 */
(PID.TID 0000.0001)     ;
(PID.TID 0000.0001) PTRACERS_useGMRedi = /* apply GM-Redi */
(PID.TID 0000.0001)                   F
(PID.TID 0000.0001)     ;
(PID.TID 0000.0001) PTRACERS_useDWNSLP = /* apply DOWN-SLOPE Flow */
(PID.TID 0000.0001)                   F
(PID.TID 0000.0001)     ;
(PID.TID 0000.0001) PTRACERS_useKPP = /* apply KPP scheme */
(PID.TID 0000.0001)                   T
(PID.TID 0000.0001)     ;
(PID.TID 0000.0001) PTRACERS_ref = /* Reference vertical profile */
(PID.TID 0000.0001)     5 @  1.000000000000000E-05,             /* K =  1:  5 */
(PID.TID 0000.0001)    30 @  0.000000000000000E+00              /* K =  6: 35 */
(PID.TID 0000.0001)     ;
(PID.TID 0000.0001) PTRACERS_EvPrRn =/* tracer conc. in Evap. & Rain */
(PID.TID 0000.0001)                 1.234567000000000E+05
(PID.TID 0000.0001)     ;
(PID.TID 0000.0001)  -----------------------------------
(PID.TID 0000.0001)  tracer number :   53
(PID.TID 0000.0001) PTRACERS_names = /* Tracer short name */
(PID.TID 0000.0001)               'fe04'
(PID.TID 0000.0001)     ;
(PID.TID 0000.0001) PTRACERS_long_names = /* Tracer long name */
(PID.TID 0000.0001)               ''
(PID.TID 0000.0001)     ;
(PID.TID 0000.0001) PTRACERS_ioLabel = /* tracer IO Label */
(PID.TID 0000.0001)               '53'
(PID.TID 0000.0001)     ;
(PID.TID 0000.0001) PTRACERS_advScheme = /* Advection Scheme */
(PID.TID 0000.0001)                      33
(PID.TID 0000.0001)     ;
(PID.TID 0000.0001) PTRACERS_SOM_Advection = /* tracer uses SOM advection scheme */
(PID.TID 0000.0001)                   F
(PID.TID 0000.0001)     ;
(PID.TID 0000.0001) PTRACERS_ImplVertAdv = /* implicit vert. advection flag */
(PID.TID 0000.0001)                   F
(PID.TID 0000.0001)     ;
(PID.TID 0000.0001) PTRACERS_diffKh = /* Laplacian Diffusivity */
(PID.TID 0000.0001)                 0.000000000000000E+00
(PID.TID 0000.0001)     ;
(PID.TID 0000.0001) PTRACERS_diffK4 = /* Biharmonic Diffusivity */
(PID.TID 0000.0001)                 0.000000000000000E+00
(PID.TID 0000.0001)     ;
(PID.TID 0000.0001) PTRACERS_diffKrNr = /* Vertical Diffusivity */
(PID.TID 0000.0001)    35 @  1.000000000000000E-05              /* K =  1: 35 */
(PID.TID 0000.0001)     ;
(PID.TID 0000.0001) PTRACERS_useGMRedi = /* apply GM-Redi */
(PID.TID 0000.0001)                   F
(PID.TID 0000.0001)     ;
(PID.TID 0000.0001) PTRACERS_useDWNSLP = /* apply DOWN-SLOPE Flow */
(PID.TID 0000.0001)                   F
(PID.TID 0000.0001)     ;
(PID.TID 0000.0001) PTRACERS_useKPP = /* apply KPP scheme */
(PID.TID 0000.0001)                   T
(PID.TID 0000.0001)     ;
(PID.TID 0000.0001) PTRACERS_ref = /* Reference vertical profile */
(PID.TID 0000.0001)     5 @  1.000000000000000E-05,             /* K =  1:  5 */
(PID.TID 0000.0001)    30 @  0.000000000000000E+00              /* K =  6: 35 */
(PID.TID 0000.0001)     ;
(PID.TID 0000.0001) PTRACERS_EvPrRn =/* tracer conc. in Evap. & Rain */
(PID.TID 0000.0001)                 1.234567000000000E+05
(PID.TID 0000.0001)     ;
(PID.TID 0000.0001)  -----------------------------------
(PID.TID 0000.0001)  tracer number :   54
(PID.TID 0000.0001) PTRACERS_names = /* Tracer short name */
(PID.TID 0000.0001)               'fe05'
(PID.TID 0000.0001)     ;
(PID.TID 0000.0001) PTRACERS_long_names = /* Tracer long name */
(PID.TID 0000.0001)               ''
(PID.TID 0000.0001)     ;
(PID.TID 0000.0001) PTRACERS_ioLabel = /* tracer IO Label */
(PID.TID 0000.0001)               '54'
(PID.TID 0000.0001)     ;
(PID.TID 0000.0001) PTRACERS_advScheme = /* Advection Scheme */
(PID.TID 0000.0001)                      33
(PID.TID 0000.0001)     ;
(PID.TID 0000.0001) PTRACERS_SOM_Advection = /* tracer uses SOM advection scheme */
(PID.TID 0000.0001)                   F
(PID.TID 0000.0001)     ;
(PID.TID 0000.0001) PTRACERS_ImplVertAdv = /* implicit vert. advection flag */
(PID.TID 0000.0001)                   F
(PID.TID 0000.0001)     ;
(PID.TID 0000.0001) PTRACERS_diffKh = /* Laplacian Diffusivity */
(PID.TID 0000.0001)                 0.000000000000000E+00
(PID.TID 0000.0001)     ;
(PID.TID 0000.0001) PTRACERS_diffK4 = /* Biharmonic Diffusivity */
(PID.TID 0000.0001)                 0.000000000000000E+00
(PID.TID 0000.0001)     ;
(PID.TID 0000.0001) PTRACERS_diffKrNr = /* Vertical Diffusivity */
(PID.TID 0000.0001)    35 @  1.000000000000000E-05              /* K =  1: 35 */
(PID.TID 0000.0001)     ;
(PID.TID 0000.0001) PTRACERS_useGMRedi = /* apply GM-Redi */
(PID.TID 0000.0001)                   F
(PID.TID 0000.0001)     ;
(PID.TID 0000.0001) PTRACERS_useDWNSLP = /* apply DOWN-SLOPE Flow */
(PID.TID 0000.0001)                   F
(PID.TID 0000.0001)     ;
(PID.TID 0000.0001) PTRACERS_useKPP = /* apply KPP scheme */
(PID.TID 0000.0001)                   T
(PID.TID 0000.0001)     ;
(PID.TID 0000.0001) PTRACERS_ref = /* Reference vertical profile */
(PID.TID 0000.0001)     5 @  1.000000000000000E-05,             /* K =  1:  5 */
(PID.TID 0000.0001)    30 @  0.000000000000000E+00              /* K =  6: 35 */
(PID.TID 0000.0001)     ;
(PID.TID 0000.0001) PTRACERS_EvPrRn =/* tracer conc. in Evap. & Rain */
(PID.TID 0000.0001)                 1.234567000000000E+05
(PID.TID 0000.0001)     ;
(PID.TID 0000.0001)  -----------------------------------
(PID.TID 0000.0001)  tracer number :   55
(PID.TID 0000.0001) PTRACERS_names = /* Tracer short name */
(PID.TID 0000.0001)               'fe06'
(PID.TID 0000.0001)     ;
(PID.TID 0000.0001) PTRACERS_long_names = /* Tracer long name */
(PID.TID 0000.0001)               ''
(PID.TID 0000.0001)     ;
(PID.TID 0000.0001) PTRACERS_ioLabel = /* tracer IO Label */
(PID.TID 0000.0001)               '55'
(PID.TID 0000.0001)     ;
(PID.TID 0000.0001) PTRACERS_advScheme = /* Advection Scheme */
(PID.TID 0000.0001)                      33
(PID.TID 0000.0001)     ;
(PID.TID 0000.0001) PTRACERS_SOM_Advection = /* tracer uses SOM advection scheme */
(PID.TID 0000.0001)                   F
(PID.TID 0000.0001)     ;
(PID.TID 0000.0001) PTRACERS_ImplVertAdv = /* implicit vert. advection flag */
(PID.TID 0000.0001)                   F
(PID.TID 0000.0001)     ;
(PID.TID 0000.0001) PTRACERS_diffKh = /* Laplacian Diffusivity */
(PID.TID 0000.0001)                 0.000000000000000E+00
(PID.TID 0000.0001)     ;
(PID.TID 0000.0001) PTRACERS_diffK4 = /* Biharmonic Diffusivity */
(PID.TID 0000.0001)                 0.000000000000000E+00
(PID.TID 0000.0001)     ;
(PID.TID 0000.0001) PTRACERS_diffKrNr = /* Vertical Diffusivity */
(PID.TID 0000.0001)    35 @  1.000000000000000E-05              /* K =  1: 35 */
(PID.TID 0000.0001)     ;
(PID.TID 0000.0001) PTRACERS_useGMRedi = /* apply GM-Redi */
(PID.TID 0000.0001)                   F
(PID.TID 0000.0001)     ;
(PID.TID 0000.0001) PTRACERS_useDWNSLP = /* apply DOWN-SLOPE Flow */
(PID.TID 0000.0001)                   F
(PID.TID 0000.0001)     ;
(PID.TID 0000.0001) PTRACERS_useKPP = /* apply KPP scheme */
(PID.TID 0000.0001)                   T
(PID.TID 0000.0001)     ;
(PID.TID 0000.0001) PTRACERS_ref = /* Reference vertical profile */
(PID.TID 0000.0001)     5 @  1.000000000000000E-05,             /* K =  1:  5 */
(PID.TID 0000.0001)    30 @  0.000000000000000E+00              /* K =  6: 35 */
(PID.TID 0000.0001)     ;
(PID.TID 0000.0001) PTRACERS_EvPrRn =/* tracer conc. in Evap. & Rain */
(PID.TID 0000.0001)                 1.234567000000000E+05
(PID.TID 0000.0001)     ;
(PID.TID 0000.0001)  -----------------------------------
(PID.TID 0000.0001)  tracer number :   56
(PID.TID 0000.0001) PTRACERS_names = /* Tracer short name */
(PID.TID 0000.0001)               'fe07'
(PID.TID 0000.0001)     ;
(PID.TID 0000.0001) PTRACERS_long_names = /* Tracer long name */
(PID.TID 0000.0001)               ''
(PID.TID 0000.0001)     ;
(PID.TID 0000.0001) PTRACERS_ioLabel = /* tracer IO Label */
(PID.TID 0000.0001)               '56'
(PID.TID 0000.0001)     ;
(PID.TID 0000.0001) PTRACERS_advScheme = /* Advection Scheme */
(PID.TID 0000.0001)                      33
(PID.TID 0000.0001)     ;
(PID.TID 0000.0001) PTRACERS_SOM_Advection = /* tracer uses SOM advection scheme */
(PID.TID 0000.0001)                   F
(PID.TID 0000.0001)     ;
(PID.TID 0000.0001) PTRACERS_ImplVertAdv = /* implicit vert. advection flag */
(PID.TID 0000.0001)                   F
(PID.TID 0000.0001)     ;
(PID.TID 0000.0001) PTRACERS_diffKh = /* Laplacian Diffusivity */
(PID.TID 0000.0001)                 0.000000000000000E+00
(PID.TID 0000.0001)     ;
(PID.TID 0000.0001) PTRACERS_diffK4 = /* Biharmonic Diffusivity */
(PID.TID 0000.0001)                 0.000000000000000E+00
(PID.TID 0000.0001)     ;
(PID.TID 0000.0001) PTRACERS_diffKrNr = /* Vertical Diffusivity */
(PID.TID 0000.0001)    35 @  1.000000000000000E-05              /* K =  1: 35 */
(PID.TID 0000.0001)     ;
(PID.TID 0000.0001) PTRACERS_useGMRedi = /* apply GM-Redi */
(PID.TID 0000.0001)                   F
(PID.TID 0000.0001)     ;
(PID.TID 0000.0001) PTRACERS_useDWNSLP = /* apply DOWN-SLOPE Flow */
(PID.TID 0000.0001)                   F
(PID.TID 0000.0001)     ;
(PID.TID 0000.0001) PTRACERS_useKPP = /* apply KPP scheme */
(PID.TID 0000.0001)                   T
(PID.TID 0000.0001)     ;
(PID.TID 0000.0001) PTRACERS_ref = /* Reference vertical profile */
(PID.TID 0000.0001)     5 @  1.000000000000000E-05,             /* K =  1:  5 */
(PID.TID 0000.0001)    30 @  0.000000000000000E+00              /* K =  6: 35 */
(PID.TID 0000.0001)     ;
(PID.TID 0000.0001) PTRACERS_EvPrRn =/* tracer conc. in Evap. & Rain */
(PID.TID 0000.0001)                 1.234567000000000E+05
(PID.TID 0000.0001)     ;
(PID.TID 0000.0001)  -----------------------------------
(PID.TID 0000.0001)  tracer number :   57
(PID.TID 0000.0001) PTRACERS_names = /* Tracer short name */
(PID.TID 0000.0001)               'fe08'
(PID.TID 0000.0001)     ;
(PID.TID 0000.0001) PTRACERS_long_names = /* Tracer long name */
(PID.TID 0000.0001)               ''
(PID.TID 0000.0001)     ;
(PID.TID 0000.0001) PTRACERS_ioLabel = /* tracer IO Label */
(PID.TID 0000.0001)               '57'
(PID.TID 0000.0001)     ;
(PID.TID 0000.0001) PTRACERS_advScheme = /* Advection Scheme */
(PID.TID 0000.0001)                      33
(PID.TID 0000.0001)     ;
(PID.TID 0000.0001) PTRACERS_SOM_Advection = /* tracer uses SOM advection scheme */
(PID.TID 0000.0001)                   F
(PID.TID 0000.0001)     ;
(PID.TID 0000.0001) PTRACERS_ImplVertAdv = /* implicit vert. advection flag */
(PID.TID 0000.0001)                   F
(PID.TID 0000.0001)     ;
(PID.TID 0000.0001) PTRACERS_diffKh = /* Laplacian Diffusivity */
(PID.TID 0000.0001)                 0.000000000000000E+00
(PID.TID 0000.0001)     ;
(PID.TID 0000.0001) PTRACERS_diffK4 = /* Biharmonic Diffusivity */
(PID.TID 0000.0001)                 0.000000000000000E+00
(PID.TID 0000.0001)     ;
(PID.TID 0000.0001) PTRACERS_diffKrNr = /* Vertical Diffusivity */
(PID.TID 0000.0001)    35 @  1.000000000000000E-05              /* K =  1: 35 */
(PID.TID 0000.0001)     ;
(PID.TID 0000.0001) PTRACERS_useGMRedi = /* apply GM-Redi */
(PID.TID 0000.0001)                   F
(PID.TID 0000.0001)     ;
(PID.TID 0000.0001) PTRACERS_useDWNSLP = /* apply DOWN-SLOPE Flow */
(PID.TID 0000.0001)                   F
(PID.TID 0000.0001)     ;
(PID.TID 0000.0001) PTRACERS_useKPP = /* apply KPP scheme */
(PID.TID 0000.0001)                   T
(PID.TID 0000.0001)     ;
(PID.TID 0000.0001) PTRACERS_ref = /* Reference vertical profile */
(PID.TID 0000.0001)     5 @  1.000000000000000E-05,             /* K =  1:  5 */
(PID.TID 0000.0001)    30 @  0.000000000000000E+00              /* K =  6: 35 */
(PID.TID 0000.0001)     ;
(PID.TID 0000.0001) PTRACERS_EvPrRn =/* tracer conc. in Evap. & Rain */
(PID.TID 0000.0001)                 1.234567000000000E+05
(PID.TID 0000.0001)     ;
(PID.TID 0000.0001)  -----------------------------------
(PID.TID 0000.0001)  tracer number :   58
(PID.TID 0000.0001) PTRACERS_names = /* Tracer short name */
(PID.TID 0000.0001)               'fe09'
(PID.TID 0000.0001)     ;
(PID.TID 0000.0001) PTRACERS_long_names = /* Tracer long name */
(PID.TID 0000.0001)               ''
(PID.TID 0000.0001)     ;
(PID.TID 0000.0001) PTRACERS_ioLabel = /* tracer IO Label */
(PID.TID 0000.0001)               '58'
(PID.TID 0000.0001)     ;
(PID.TID 0000.0001) PTRACERS_advScheme = /* Advection Scheme */
(PID.TID 0000.0001)                      33
(PID.TID 0000.0001)     ;
(PID.TID 0000.0001) PTRACERS_SOM_Advection = /* tracer uses SOM advection scheme */
(PID.TID 0000.0001)                   F
(PID.TID 0000.0001)     ;
(PID.TID 0000.0001) PTRACERS_ImplVertAdv = /* implicit vert. advection flag */
(PID.TID 0000.0001)                   F
(PID.TID 0000.0001)     ;
(PID.TID 0000.0001) PTRACERS_diffKh = /* Laplacian Diffusivity */
(PID.TID 0000.0001)                 0.000000000000000E+00
(PID.TID 0000.0001)     ;
(PID.TID 0000.0001) PTRACERS_diffK4 = /* Biharmonic Diffusivity */
(PID.TID 0000.0001)                 0.000000000000000E+00
(PID.TID 0000.0001)     ;
(PID.TID 0000.0001) PTRACERS_diffKrNr = /* Vertical Diffusivity */
(PID.TID 0000.0001)    35 @  1.000000000000000E-05              /* K =  1: 35 */
(PID.TID 0000.0001)     ;
(PID.TID 0000.0001) PTRACERS_useGMRedi = /* apply GM-Redi */
(PID.TID 0000.0001)                   F
(PID.TID 0000.0001)     ;
(PID.TID 0000.0001) PTRACERS_useDWNSLP = /* apply DOWN-SLOPE Flow */
(PID.TID 0000.0001)                   F
(PID.TID 0000.0001)     ;
(PID.TID 0000.0001) PTRACERS_useKPP = /* apply KPP scheme */
(PID.TID 0000.0001)                   T
(PID.TID 0000.0001)     ;
(PID.TID 0000.0001) PTRACERS_ref = /* Reference vertical profile */
(PID.TID 0000.0001)     5 @  1.000000000000000E-05,             /* K =  1:  5 */
(PID.TID 0000.0001)    30 @  0.000000000000000E+00              /* K =  6: 35 */
(PID.TID 0000.0001)     ;
(PID.TID 0000.0001) PTRACERS_EvPrRn =/* tracer conc. in Evap. & Rain */
(PID.TID 0000.0001)                 1.234567000000000E+05
(PID.TID 0000.0001)     ;
(PID.TID 0000.0001)  -----------------------------------
(PID.TID 0000.0001)  tracer number :   59
(PID.TID 0000.0001) PTRACERS_names = /* Tracer short name */
(PID.TID 0000.0001)               'fe10'
(PID.TID 0000.0001)     ;
(PID.TID 0000.0001) PTRACERS_long_names = /* Tracer long name */
(PID.TID 0000.0001)               ''
(PID.TID 0000.0001)     ;
(PID.TID 0000.0001) PTRACERS_ioLabel = /* tracer IO Label */
(PID.TID 0000.0001)               '59'
(PID.TID 0000.0001)     ;
(PID.TID 0000.0001) PTRACERS_advScheme = /* Advection Scheme */
(PID.TID 0000.0001)                      33
(PID.TID 0000.0001)     ;
(PID.TID 0000.0001) PTRACERS_SOM_Advection = /* tracer uses SOM advection scheme */
(PID.TID 0000.0001)                   F
(PID.TID 0000.0001)     ;
(PID.TID 0000.0001) PTRACERS_ImplVertAdv = /* implicit vert. advection flag */
(PID.TID 0000.0001)                   F
(PID.TID 0000.0001)     ;
(PID.TID 0000.0001) PTRACERS_diffKh = /* Laplacian Diffusivity */
(PID.TID 0000.0001)                 0.000000000000000E+00
(PID.TID 0000.0001)     ;
(PID.TID 0000.0001) PTRACERS_diffK4 = /* Biharmonic Diffusivity */
(PID.TID 0000.0001)                 0.000000000000000E+00
(PID.TID 0000.0001)     ;
(PID.TID 0000.0001) PTRACERS_diffKrNr = /* Vertical Diffusivity */
(PID.TID 0000.0001)    35 @  1.000000000000000E-05              /* K =  1: 35 */
(PID.TID 0000.0001)     ;
(PID.TID 0000.0001) PTRACERS_useGMRedi = /* apply GM-Redi */
(PID.TID 0000.0001)                   F
(PID.TID 0000.0001)     ;
(PID.TID 0000.0001) PTRACERS_useDWNSLP = /* apply DOWN-SLOPE Flow */
(PID.TID 0000.0001)                   F
(PID.TID 0000.0001)     ;
(PID.TID 0000.0001) PTRACERS_useKPP = /* apply KPP scheme */
(PID.TID 0000.0001)                   T
(PID.TID 0000.0001)     ;
(PID.TID 0000.0001) PTRACERS_ref = /* Reference vertical profile */
(PID.TID 0000.0001)     5 @  1.000000000000000E-05,             /* K =  1:  5 */
(PID.TID 0000.0001)    30 @  0.000000000000000E+00              /* K =  6: 35 */
(PID.TID 0000.0001)     ;
(PID.TID 0000.0001) PTRACERS_EvPrRn =/* tracer conc. in Evap. & Rain */
(PID.TID 0000.0001)                 1.234567000000000E+05
(PID.TID 0000.0001)     ;
(PID.TID 0000.0001)  -----------------------------------
(PID.TID 0000.0001)  tracer number :   60
(PID.TID 0000.0001) PTRACERS_names = /* Tracer short name */
(PID.TID 0000.0001)               'fe11'
(PID.TID 0000.0001)     ;
(PID.TID 0000.0001) PTRACERS_long_names = /* Tracer long name */
(PID.TID 0000.0001)               ''
(PID.TID 0000.0001)     ;
(PID.TID 0000.0001) PTRACERS_ioLabel = /* tracer IO Label */
(PID.TID 0000.0001)               '60'
(PID.TID 0000.0001)     ;
(PID.TID 0000.0001) PTRACERS_advScheme = /* Advection Scheme */
(PID.TID 0000.0001)                      33
(PID.TID 0000.0001)     ;
(PID.TID 0000.0001) PTRACERS_SOM_Advection = /* tracer uses SOM advection scheme */
(PID.TID 0000.0001)                   F
(PID.TID 0000.0001)     ;
(PID.TID 0000.0001) PTRACERS_ImplVertAdv = /* implicit vert. advection flag */
(PID.TID 0000.0001)                   F
(PID.TID 0000.0001)     ;
(PID.TID 0000.0001) PTRACERS_diffKh = /* Laplacian Diffusivity */
(PID.TID 0000.0001)                 0.000000000000000E+00
(PID.TID 0000.0001)     ;
(PID.TID 0000.0001) PTRACERS_diffK4 = /* Biharmonic Diffusivity */
(PID.TID 0000.0001)                 0.000000000000000E+00
(PID.TID 0000.0001)     ;
(PID.TID 0000.0001) PTRACERS_diffKrNr = /* Vertical Diffusivity */
(PID.TID 0000.0001)    35 @  1.000000000000000E-05              /* K =  1: 35 */
(PID.TID 0000.0001)     ;
(PID.TID 0000.0001) PTRACERS_useGMRedi = /* apply GM-Redi */
(PID.TID 0000.0001)                   F
(PID.TID 0000.0001)     ;
(PID.TID 0000.0001) PTRACERS_useDWNSLP = /* apply DOWN-SLOPE Flow */
(PID.TID 0000.0001)                   F
(PID.TID 0000.0001)     ;
(PID.TID 0000.0001) PTRACERS_useKPP = /* apply KPP scheme */
(PID.TID 0000.0001)                   T
(PID.TID 0000.0001)     ;
(PID.TID 0000.0001) PTRACERS_ref = /* Reference vertical profile */
(PID.TID 0000.0001)     5 @  1.000000000000000E-05,             /* K =  1:  5 */
(PID.TID 0000.0001)    30 @  0.000000000000000E+00              /* K =  6: 35 */
(PID.TID 0000.0001)     ;
(PID.TID 0000.0001) PTRACERS_EvPrRn =/* tracer conc. in Evap. & Rain */
(PID.TID 0000.0001)                 1.234567000000000E+05
(PID.TID 0000.0001)     ;
(PID.TID 0000.0001)  -----------------------------------
(PID.TID 0000.0001)  tracer number :   61
(PID.TID 0000.0001) PTRACERS_names = /* Tracer short name */
(PID.TID 0000.0001)               'fe12'
(PID.TID 0000.0001)     ;
(PID.TID 0000.0001) PTRACERS_long_names = /* Tracer long name */
(PID.TID 0000.0001)               ''
(PID.TID 0000.0001)     ;
(PID.TID 0000.0001) PTRACERS_ioLabel = /* tracer IO Label */
(PID.TID 0000.0001)               '61'
(PID.TID 0000.0001)     ;
(PID.TID 0000.0001) PTRACERS_advScheme = /* Advection Scheme */
(PID.TID 0000.0001)                      33
(PID.TID 0000.0001)     ;
(PID.TID 0000.0001) PTRACERS_SOM_Advection = /* tracer uses SOM advection scheme */
(PID.TID 0000.0001)                   F
(PID.TID 0000.0001)     ;
(PID.TID 0000.0001) PTRACERS_ImplVertAdv = /* implicit vert. advection flag */
(PID.TID 0000.0001)                   F
(PID.TID 0000.0001)     ;
(PID.TID 0000.0001) PTRACERS_diffKh = /* Laplacian Diffusivity */
(PID.TID 0000.0001)                 0.000000000000000E+00
(PID.TID 0000.0001)     ;
(PID.TID 0000.0001) PTRACERS_diffK4 = /* Biharmonic Diffusivity */
(PID.TID 0000.0001)                 0.000000000000000E+00
(PID.TID 0000.0001)     ;
(PID.TID 0000.0001) PTRACERS_diffKrNr = /* Vertical Diffusivity */
(PID.TID 0000.0001)    35 @  1.000000000000000E-05              /* K =  1: 35 */
(PID.TID 0000.0001)     ;
(PID.TID 0000.0001) PTRACERS_useGMRedi = /* apply GM-Redi */
(PID.TID 0000.0001)                   F
(PID.TID 0000.0001)     ;
(PID.TID 0000.0001) PTRACERS_useDWNSLP = /* apply DOWN-SLOPE Flow */
(PID.TID 0000.0001)                   F
(PID.TID 0000.0001)     ;
(PID.TID 0000.0001) PTRACERS_useKPP = /* apply KPP scheme */
(PID.TID 0000.0001)                   T
(PID.TID 0000.0001)     ;
(PID.TID 0000.0001) PTRACERS_ref = /* Reference vertical profile */
(PID.TID 0000.0001)     5 @  1.000000000000000E-05,             /* K =  1:  5 */
(PID.TID 0000.0001)    30 @  0.000000000000000E+00              /* K =  6: 35 */
(PID.TID 0000.0001)     ;
(PID.TID 0000.0001) PTRACERS_EvPrRn =/* tracer conc. in Evap. & Rain */
(PID.TID 0000.0001)                 1.234567000000000E+05
(PID.TID 0000.0001)     ;
(PID.TID 0000.0001)  -----------------------------------
(PID.TID 0000.0001)  tracer number :   62
(PID.TID 0000.0001) PTRACERS_names = /* Tracer short name */
(PID.TID 0000.0001)               'fe13'
(PID.TID 0000.0001)     ;
(PID.TID 0000.0001) PTRACERS_long_names = /* Tracer long name */
(PID.TID 0000.0001)               ''
(PID.TID 0000.0001)     ;
(PID.TID 0000.0001) PTRACERS_ioLabel = /* tracer IO Label */
(PID.TID 0000.0001)               '62'
(PID.TID 0000.0001)     ;
(PID.TID 0000.0001) PTRACERS_advScheme = /* Advection Scheme */
(PID.TID 0000.0001)                      33
(PID.TID 0000.0001)     ;
(PID.TID 0000.0001) PTRACERS_SOM_Advection = /* tracer uses SOM advection scheme */
(PID.TID 0000.0001)                   F
(PID.TID 0000.0001)     ;
(PID.TID 0000.0001) PTRACERS_ImplVertAdv = /* implicit vert. advection flag */
(PID.TID 0000.0001)                   F
(PID.TID 0000.0001)     ;
(PID.TID 0000.0001) PTRACERS_diffKh = /* Laplacian Diffusivity */
(PID.TID 0000.0001)                 0.000000000000000E+00
(PID.TID 0000.0001)     ;
(PID.TID 0000.0001) PTRACERS_diffK4 = /* Biharmonic Diffusivity */
(PID.TID 0000.0001)                 0.000000000000000E+00
(PID.TID 0000.0001)     ;
(PID.TID 0000.0001) PTRACERS_diffKrNr = /* Vertical Diffusivity */
(PID.TID 0000.0001)    35 @  1.000000000000000E-05              /* K =  1: 35 */
(PID.TID 0000.0001)     ;
(PID.TID 0000.0001) PTRACERS_useGMRedi = /* apply GM-Redi */
(PID.TID 0000.0001)                   F
(PID.TID 0000.0001)     ;
(PID.TID 0000.0001) PTRACERS_useDWNSLP = /* apply DOWN-SLOPE Flow */
(PID.TID 0000.0001)                   F
(PID.TID 0000.0001)     ;
(PID.TID 0000.0001) PTRACERS_useKPP = /* apply KPP scheme */
(PID.TID 0000.0001)                   T
(PID.TID 0000.0001)     ;
(PID.TID 0000.0001) PTRACERS_ref = /* Reference vertical profile */
(PID.TID 0000.0001)     5 @  1.000000000000000E-05,             /* K =  1:  5 */
(PID.TID 0000.0001)    30 @  0.000000000000000E+00              /* K =  6: 35 */
(PID.TID 0000.0001)     ;
(PID.TID 0000.0001) PTRACERS_EvPrRn =/* tracer conc. in Evap. & Rain */
(PID.TID 0000.0001)                 1.234567000000000E+05
(PID.TID 0000.0001)     ;
(PID.TID 0000.0001)  -----------------------------------
(PID.TID 0000.0001)  tracer number :   63
(PID.TID 0000.0001) PTRACERS_names = /* Tracer short name */
(PID.TID 0000.0001)               'fe14'
(PID.TID 0000.0001)     ;
(PID.TID 0000.0001) PTRACERS_long_names = /* Tracer long name */
(PID.TID 0000.0001)               ''
(PID.TID 0000.0001)     ;
(PID.TID 0000.0001) PTRACERS_ioLabel = /* tracer IO Label */
(PID.TID 0000.0001)               '63'
(PID.TID 0000.0001)     ;
(PID.TID 0000.0001) PTRACERS_advScheme = /* Advection Scheme */
(PID.TID 0000.0001)                      33
(PID.TID 0000.0001)     ;
(PID.TID 0000.0001) PTRACERS_SOM_Advection = /* tracer uses SOM advection scheme */
(PID.TID 0000.0001)                   F
(PID.TID 0000.0001)     ;
(PID.TID 0000.0001) PTRACERS_ImplVertAdv = /* implicit vert. advection flag */
(PID.TID 0000.0001)                   F
(PID.TID 0000.0001)     ;
(PID.TID 0000.0001) PTRACERS_diffKh = /* Laplacian Diffusivity */
(PID.TID 0000.0001)                 0.000000000000000E+00
(PID.TID 0000.0001)     ;
(PID.TID 0000.0001) PTRACERS_diffK4 = /* Biharmonic Diffusivity */
(PID.TID 0000.0001)                 0.000000000000000E+00
(PID.TID 0000.0001)     ;
(PID.TID 0000.0001) PTRACERS_diffKrNr = /* Vertical Diffusivity */
(PID.TID 0000.0001)    35 @  1.000000000000000E-05              /* K =  1: 35 */
(PID.TID 0000.0001)     ;
(PID.TID 0000.0001) PTRACERS_useGMRedi = /* apply GM-Redi */
(PID.TID 0000.0001)                   F
(PID.TID 0000.0001)     ;
(PID.TID 0000.0001) PTRACERS_useDWNSLP = /* apply DOWN-SLOPE Flow */
(PID.TID 0000.0001)                   F
(PID.TID 0000.0001)     ;
(PID.TID 0000.0001) PTRACERS_useKPP = /* apply KPP scheme */
(PID.TID 0000.0001)                   T
(PID.TID 0000.0001)     ;
(PID.TID 0000.0001) PTRACERS_ref = /* Reference vertical profile */
(PID.TID 0000.0001)     5 @  1.000000000000000E-05,             /* K =  1:  5 */
(PID.TID 0000.0001)    30 @  0.000000000000000E+00              /* K =  6: 35 */
(PID.TID 0000.0001)     ;
(PID.TID 0000.0001) PTRACERS_EvPrRn =/* tracer conc. in Evap. & Rain */
(PID.TID 0000.0001)                 1.234567000000000E+05
(PID.TID 0000.0001)     ;
(PID.TID 0000.0001)  -----------------------------------
(PID.TID 0000.0001)  tracer number :   64
(PID.TID 0000.0001) PTRACERS_names = /* Tracer short name */
(PID.TID 0000.0001)               'fe15'
(PID.TID 0000.0001)     ;
(PID.TID 0000.0001) PTRACERS_long_names = /* Tracer long name */
(PID.TID 0000.0001)               ''
(PID.TID 0000.0001)     ;
(PID.TID 0000.0001) PTRACERS_ioLabel = /* tracer IO Label */
(PID.TID 0000.0001)               '64'
(PID.TID 0000.0001)     ;
(PID.TID 0000.0001) PTRACERS_advScheme = /* Advection Scheme */
(PID.TID 0000.0001)                      33
(PID.TID 0000.0001)     ;
(PID.TID 0000.0001) PTRACERS_SOM_Advection = /* tracer uses SOM advection scheme */
(PID.TID 0000.0001)                   F
(PID.TID 0000.0001)     ;
(PID.TID 0000.0001) PTRACERS_ImplVertAdv = /* implicit vert. advection flag */
(PID.TID 0000.0001)                   F
(PID.TID 0000.0001)     ;
(PID.TID 0000.0001) PTRACERS_diffKh = /* Laplacian Diffusivity */
(PID.TID 0000.0001)                 0.000000000000000E+00
(PID.TID 0000.0001)     ;
(PID.TID 0000.0001) PTRACERS_diffK4 = /* Biharmonic Diffusivity */
(PID.TID 0000.0001)                 0.000000000000000E+00
(PID.TID 0000.0001)     ;
(PID.TID 0000.0001) PTRACERS_diffKrNr = /* Vertical Diffusivity */
(PID.TID 0000.0001)    35 @  1.000000000000000E-05              /* K =  1: 35 */
(PID.TID 0000.0001)     ;
(PID.TID 0000.0001) PTRACERS_useGMRedi = /* apply GM-Redi */
(PID.TID 0000.0001)                   F
(PID.TID 0000.0001)     ;
(PID.TID 0000.0001) PTRACERS_useDWNSLP = /* apply DOWN-SLOPE Flow */
(PID.TID 0000.0001)                   F
(PID.TID 0000.0001)     ;
(PID.TID 0000.0001) PTRACERS_useKPP = /* apply KPP scheme */
(PID.TID 0000.0001)                   T
(PID.TID 0000.0001)     ;
(PID.TID 0000.0001) PTRACERS_ref = /* Reference vertical profile */
(PID.TID 0000.0001)     5 @  1.000000000000000E-05,             /* K =  1:  5 */
(PID.TID 0000.0001)    30 @  0.000000000000000E+00              /* K =  6: 35 */
(PID.TID 0000.0001)     ;
(PID.TID 0000.0001) PTRACERS_EvPrRn =/* tracer conc. in Evap. & Rain */
(PID.TID 0000.0001)                 1.234567000000000E+05
(PID.TID 0000.0001)     ;
(PID.TID 0000.0001)  -----------------------------------
(PID.TID 0000.0001)  tracer number :   65
(PID.TID 0000.0001) PTRACERS_names = /* Tracer short name */
(PID.TID 0000.0001)               'fe16'
(PID.TID 0000.0001)     ;
(PID.TID 0000.0001) PTRACERS_long_names = /* Tracer long name */
(PID.TID 0000.0001)               ''
(PID.TID 0000.0001)     ;
(PID.TID 0000.0001) PTRACERS_ioLabel = /* tracer IO Label */
(PID.TID 0000.0001)               '65'
(PID.TID 0000.0001)     ;
(PID.TID 0000.0001) PTRACERS_advScheme = /* Advection Scheme */
(PID.TID 0000.0001)                      33
(PID.TID 0000.0001)     ;
(PID.TID 0000.0001) PTRACERS_SOM_Advection = /* tracer uses SOM advection scheme */
(PID.TID 0000.0001)                   F
(PID.TID 0000.0001)     ;
(PID.TID 0000.0001) PTRACERS_ImplVertAdv = /* implicit vert. advection flag */
(PID.TID 0000.0001)                   F
(PID.TID 0000.0001)     ;
(PID.TID 0000.0001) PTRACERS_diffKh = /* Laplacian Diffusivity */
(PID.TID 0000.0001)                 0.000000000000000E+00
(PID.TID 0000.0001)     ;
(PID.TID 0000.0001) PTRACERS_diffK4 = /* Biharmonic Diffusivity */
(PID.TID 0000.0001)                 0.000000000000000E+00
(PID.TID 0000.0001)     ;
(PID.TID 0000.0001) PTRACERS_diffKrNr = /* Vertical Diffusivity */
(PID.TID 0000.0001)    35 @  1.000000000000000E-05              /* K =  1: 35 */
(PID.TID 0000.0001)     ;
(PID.TID 0000.0001) PTRACERS_useGMRedi = /* apply GM-Redi */
(PID.TID 0000.0001)                   F
(PID.TID 0000.0001)     ;
(PID.TID 0000.0001) PTRACERS_useDWNSLP = /* apply DOWN-SLOPE Flow */
(PID.TID 0000.0001)                   F
(PID.TID 0000.0001)     ;
(PID.TID 0000.0001) PTRACERS_useKPP = /* apply KPP scheme */
(PID.TID 0000.0001)                   T
(PID.TID 0000.0001)     ;
(PID.TID 0000.0001) PTRACERS_ref = /* Reference vertical profile */
(PID.TID 0000.0001)     5 @  1.000000000000000E-05,             /* K =  1:  5 */
(PID.TID 0000.0001)    30 @  0.000000000000000E+00              /* K =  6: 35 */
(PID.TID 0000.0001)     ;
(PID.TID 0000.0001) PTRACERS_EvPrRn =/* tracer conc. in Evap. & Rain */
(PID.TID 0000.0001)                 1.234567000000000E+05
(PID.TID 0000.0001)     ;
(PID.TID 0000.0001)  -----------------------------------
(PID.TID 0000.0001)  tracer number :   66
(PID.TID 0000.0001) PTRACERS_names = /* Tracer short name */
(PID.TID 0000.0001)               'Chl01'
(PID.TID 0000.0001)     ;
(PID.TID 0000.0001) PTRACERS_long_names = /* Tracer long name */
(PID.TID 0000.0001)               ''
(PID.TID 0000.0001)     ;
(PID.TID 0000.0001) PTRACERS_ioLabel = /* tracer IO Label */
(PID.TID 0000.0001)               '66'
(PID.TID 0000.0001)     ;
(PID.TID 0000.0001) PTRACERS_advScheme = /* Advection Scheme */
(PID.TID 0000.0001)                      33
(PID.TID 0000.0001)     ;
(PID.TID 0000.0001) PTRACERS_SOM_Advection = /* tracer uses SOM advection scheme */
(PID.TID 0000.0001)                   F
(PID.TID 0000.0001)     ;
(PID.TID 0000.0001) PTRACERS_ImplVertAdv = /* implicit vert. advection flag */
(PID.TID 0000.0001)                   F
(PID.TID 0000.0001)     ;
(PID.TID 0000.0001) PTRACERS_diffKh = /* Laplacian Diffusivity */
(PID.TID 0000.0001)                 0.000000000000000E+00
(PID.TID 0000.0001)     ;
(PID.TID 0000.0001) PTRACERS_diffK4 = /* Biharmonic Diffusivity */
(PID.TID 0000.0001)                 0.000000000000000E+00
(PID.TID 0000.0001)     ;
(PID.TID 0000.0001) PTRACERS_diffKrNr = /* Vertical Diffusivity */
(PID.TID 0000.0001)    35 @  1.000000000000000E-05              /* K =  1: 35 */
(PID.TID 0000.0001)     ;
(PID.TID 0000.0001) PTRACERS_useGMRedi = /* apply GM-Redi */
(PID.TID 0000.0001)                   F
(PID.TID 0000.0001)     ;
(PID.TID 0000.0001) PTRACERS_useDWNSLP = /* apply DOWN-SLOPE Flow */
(PID.TID 0000.0001)                   F
(PID.TID 0000.0001)     ;
(PID.TID 0000.0001) PTRACERS_useKPP = /* apply KPP scheme */
(PID.TID 0000.0001)                   T
(PID.TID 0000.0001)     ;
(PID.TID 0000.0001) PTRACERS_ref = /* Reference vertical profile */
(PID.TID 0000.0001)     5 @  1.500000000000000E-01,             /* K =  1:  5 */
(PID.TID 0000.0001)    30 @  0.000000000000000E+00              /* K =  6: 35 */
(PID.TID 0000.0001)     ;
(PID.TID 0000.0001) PTRACERS_EvPrRn =/* tracer conc. in Evap. & Rain */
(PID.TID 0000.0001)                 1.234567000000000E+05
(PID.TID 0000.0001)     ;
(PID.TID 0000.0001)  -----------------------------------
(PID.TID 0000.0001)  tracer number :   67
(PID.TID 0000.0001) PTRACERS_names = /* Tracer short name */
(PID.TID 0000.0001)               'Chl02'
(PID.TID 0000.0001)     ;
(PID.TID 0000.0001) PTRACERS_long_names = /* Tracer long name */
(PID.TID 0000.0001)               ''
(PID.TID 0000.0001)     ;
(PID.TID 0000.0001) PTRACERS_ioLabel = /* tracer IO Label */
(PID.TID 0000.0001)               '67'
(PID.TID 0000.0001)     ;
(PID.TID 0000.0001) PTRACERS_advScheme = /* Advection Scheme */
(PID.TID 0000.0001)                      33
(PID.TID 0000.0001)     ;
(PID.TID 0000.0001) PTRACERS_SOM_Advection = /* tracer uses SOM advection scheme */
(PID.TID 0000.0001)                   F
(PID.TID 0000.0001)     ;
(PID.TID 0000.0001) PTRACERS_ImplVertAdv = /* implicit vert. advection flag */
(PID.TID 0000.0001)                   F
(PID.TID 0000.0001)     ;
(PID.TID 0000.0001) PTRACERS_diffKh = /* Laplacian Diffusivity */
(PID.TID 0000.0001)                 0.000000000000000E+00
(PID.TID 0000.0001)     ;
(PID.TID 0000.0001) PTRACERS_diffK4 = /* Biharmonic Diffusivity */
(PID.TID 0000.0001)                 0.000000000000000E+00
(PID.TID 0000.0001)     ;
(PID.TID 0000.0001) PTRACERS_diffKrNr = /* Vertical Diffusivity */
(PID.TID 0000.0001)    35 @  1.000000000000000E-05              /* K =  1: 35 */
(PID.TID 0000.0001)     ;
(PID.TID 0000.0001) PTRACERS_useGMRedi = /* apply GM-Redi */
(PID.TID 0000.0001)                   F
(PID.TID 0000.0001)     ;
(PID.TID 0000.0001) PTRACERS_useDWNSLP = /* apply DOWN-SLOPE Flow */
(PID.TID 0000.0001)                   F
(PID.TID 0000.0001)     ;
(PID.TID 0000.0001) PTRACERS_useKPP = /* apply KPP scheme */
(PID.TID 0000.0001)                   T
(PID.TID 0000.0001)     ;
(PID.TID 0000.0001) PTRACERS_ref = /* Reference vertical profile */
(PID.TID 0000.0001)     5 @  1.500000000000000E-01,             /* K =  1:  5 */
(PID.TID 0000.0001)    30 @  0.000000000000000E+00              /* K =  6: 35 */
(PID.TID 0000.0001)     ;
(PID.TID 0000.0001) PTRACERS_EvPrRn =/* tracer conc. in Evap. & Rain */
(PID.TID 0000.0001)                 1.234567000000000E+05
(PID.TID 0000.0001)     ;
(PID.TID 0000.0001)  -----------------------------------
(PID.TID 0000.0001)  tracer number :   68
(PID.TID 0000.0001) PTRACERS_names = /* Tracer short name */
(PID.TID 0000.0001)               'Chl03'
(PID.TID 0000.0001)     ;
(PID.TID 0000.0001) PTRACERS_long_names = /* Tracer long name */
(PID.TID 0000.0001)               ''
(PID.TID 0000.0001)     ;
(PID.TID 0000.0001) PTRACERS_ioLabel = /* tracer IO Label */
(PID.TID 0000.0001)               '68'
(PID.TID 0000.0001)     ;
(PID.TID 0000.0001) PTRACERS_advScheme = /* Advection Scheme */
(PID.TID 0000.0001)                      33
(PID.TID 0000.0001)     ;
(PID.TID 0000.0001) PTRACERS_SOM_Advection = /* tracer uses SOM advection scheme */
(PID.TID 0000.0001)                   F
(PID.TID 0000.0001)     ;
(PID.TID 0000.0001) PTRACERS_ImplVertAdv = /* implicit vert. advection flag */
(PID.TID 0000.0001)                   F
(PID.TID 0000.0001)     ;
(PID.TID 0000.0001) PTRACERS_diffKh = /* Laplacian Diffusivity */
(PID.TID 0000.0001)                 0.000000000000000E+00
(PID.TID 0000.0001)     ;
(PID.TID 0000.0001) PTRACERS_diffK4 = /* Biharmonic Diffusivity */
(PID.TID 0000.0001)                 0.000000000000000E+00
(PID.TID 0000.0001)     ;
(PID.TID 0000.0001) PTRACERS_diffKrNr = /* Vertical Diffusivity */
(PID.TID 0000.0001)    35 @  1.000000000000000E-05              /* K =  1: 35 */
(PID.TID 0000.0001)     ;
(PID.TID 0000.0001) PTRACERS_useGMRedi = /* apply GM-Redi */
(PID.TID 0000.0001)                   F
(PID.TID 0000.0001)     ;
(PID.TID 0000.0001) PTRACERS_useDWNSLP = /* apply DOWN-SLOPE Flow */
(PID.TID 0000.0001)                   F
(PID.TID 0000.0001)     ;
(PID.TID 0000.0001) PTRACERS_useKPP = /* apply KPP scheme */
(PID.TID 0000.0001)                   T
(PID.TID 0000.0001)     ;
(PID.TID 0000.0001) PTRACERS_ref = /* Reference vertical profile */
(PID.TID 0000.0001)     5 @  1.500000000000000E-01,             /* K =  1:  5 */
(PID.TID 0000.0001)    30 @  0.000000000000000E+00              /* K =  6: 35 */
(PID.TID 0000.0001)     ;
(PID.TID 0000.0001) PTRACERS_EvPrRn =/* tracer conc. in Evap. & Rain */
(PID.TID 0000.0001)                 1.234567000000000E+05
(PID.TID 0000.0001)     ;
(PID.TID 0000.0001)  -----------------------------------
(PID.TID 0000.0001)  tracer number :   69
(PID.TID 0000.0001) PTRACERS_names = /* Tracer short name */
(PID.TID 0000.0001)               'Chl04'
(PID.TID 0000.0001)     ;
(PID.TID 0000.0001) PTRACERS_long_names = /* Tracer long name */
(PID.TID 0000.0001)               ''
(PID.TID 0000.0001)     ;
(PID.TID 0000.0001) PTRACERS_ioLabel = /* tracer IO Label */
(PID.TID 0000.0001)               '69'
(PID.TID 0000.0001)     ;
(PID.TID 0000.0001) PTRACERS_advScheme = /* Advection Scheme */
(PID.TID 0000.0001)                      33
(PID.TID 0000.0001)     ;
(PID.TID 0000.0001) PTRACERS_SOM_Advection = /* tracer uses SOM advection scheme */
(PID.TID 0000.0001)                   F
(PID.TID 0000.0001)     ;
(PID.TID 0000.0001) PTRACERS_ImplVertAdv = /* implicit vert. advection flag */
(PID.TID 0000.0001)                   F
(PID.TID 0000.0001)     ;
(PID.TID 0000.0001) PTRACERS_diffKh = /* Laplacian Diffusivity */
(PID.TID 0000.0001)                 0.000000000000000E+00
(PID.TID 0000.0001)     ;
(PID.TID 0000.0001) PTRACERS_diffK4 = /* Biharmonic Diffusivity */
(PID.TID 0000.0001)                 0.000000000000000E+00
(PID.TID 0000.0001)     ;
(PID.TID 0000.0001) PTRACERS_diffKrNr = /* Vertical Diffusivity */
(PID.TID 0000.0001)    35 @  1.000000000000000E-05              /* K =  1: 35 */
(PID.TID 0000.0001)     ;
(PID.TID 0000.0001) PTRACERS_useGMRedi = /* apply GM-Redi */
(PID.TID 0000.0001)                   F
(PID.TID 0000.0001)     ;
(PID.TID 0000.0001) PTRACERS_useDWNSLP = /* apply DOWN-SLOPE Flow */
(PID.TID 0000.0001)                   F
(PID.TID 0000.0001)     ;
(PID.TID 0000.0001) PTRACERS_useKPP = /* apply KPP scheme */
(PID.TID 0000.0001)                   T
(PID.TID 0000.0001)     ;
(PID.TID 0000.0001) PTRACERS_ref = /* Reference vertical profile */
(PID.TID 0000.0001)     5 @  1.500000000000000E-01,             /* K =  1:  5 */
(PID.TID 0000.0001)    30 @  0.000000000000000E+00              /* K =  6: 35 */
(PID.TID 0000.0001)     ;
(PID.TID 0000.0001) PTRACERS_EvPrRn =/* tracer conc. in Evap. & Rain */
(PID.TID 0000.0001)                 1.234567000000000E+05
(PID.TID 0000.0001)     ;
(PID.TID 0000.0001)  -----------------------------------
(PID.TID 0000.0001)  tracer number :   70
(PID.TID 0000.0001) PTRACERS_names = /* Tracer short name */
(PID.TID 0000.0001)               'Chl05'
(PID.TID 0000.0001)     ;
(PID.TID 0000.0001) PTRACERS_long_names = /* Tracer long name */
(PID.TID 0000.0001)               ''
(PID.TID 0000.0001)     ;
(PID.TID 0000.0001) PTRACERS_ioLabel = /* tracer IO Label */
(PID.TID 0000.0001)               '70'
(PID.TID 0000.0001)     ;
(PID.TID 0000.0001) PTRACERS_advScheme = /* Advection Scheme */
(PID.TID 0000.0001)                      33
(PID.TID 0000.0001)     ;
(PID.TID 0000.0001) PTRACERS_SOM_Advection = /* tracer uses SOM advection scheme */
(PID.TID 0000.0001)                   F
(PID.TID 0000.0001)     ;
(PID.TID 0000.0001) PTRACERS_ImplVertAdv = /* implicit vert. advection flag */
(PID.TID 0000.0001)                   F
(PID.TID 0000.0001)     ;
(PID.TID 0000.0001) PTRACERS_diffKh = /* Laplacian Diffusivity */
(PID.TID 0000.0001)                 0.000000000000000E+00
(PID.TID 0000.0001)     ;
(PID.TID 0000.0001) PTRACERS_diffK4 = /* Biharmonic Diffusivity */
(PID.TID 0000.0001)                 0.000000000000000E+00
(PID.TID 0000.0001)     ;
(PID.TID 0000.0001) PTRACERS_diffKrNr = /* Vertical Diffusivity */
(PID.TID 0000.0001)    35 @  1.000000000000000E-05              /* K =  1: 35 */
(PID.TID 0000.0001)     ;
(PID.TID 0000.0001) PTRACERS_useGMRedi = /* apply GM-Redi */
(PID.TID 0000.0001)                   F
(PID.TID 0000.0001)     ;
(PID.TID 0000.0001) PTRACERS_useDWNSLP = /* apply DOWN-SLOPE Flow */
(PID.TID 0000.0001)                   F
(PID.TID 0000.0001)     ;
(PID.TID 0000.0001) PTRACERS_useKPP = /* apply KPP scheme */
(PID.TID 0000.0001)                   T
(PID.TID 0000.0001)     ;
(PID.TID 0000.0001) PTRACERS_ref = /* Reference vertical profile */
(PID.TID 0000.0001)     5 @  1.500000000000000E-01,             /* K =  1:  5 */
(PID.TID 0000.0001)    30 @  0.000000000000000E+00              /* K =  6: 35 */
(PID.TID 0000.0001)     ;
(PID.TID 0000.0001) PTRACERS_EvPrRn =/* tracer conc. in Evap. & Rain */
(PID.TID 0000.0001)                 1.234567000000000E+05
(PID.TID 0000.0001)     ;
(PID.TID 0000.0001)  -----------------------------------
(PID.TID 0000.0001)  tracer number :   71
(PID.TID 0000.0001) PTRACERS_names = /* Tracer short name */
(PID.TID 0000.0001)               'Chl06'
(PID.TID 0000.0001)     ;
(PID.TID 0000.0001) PTRACERS_long_names = /* Tracer long name */
(PID.TID 0000.0001)               ''
(PID.TID 0000.0001)     ;
(PID.TID 0000.0001) PTRACERS_ioLabel = /* tracer IO Label */
(PID.TID 0000.0001)               '71'
(PID.TID 0000.0001)     ;
(PID.TID 0000.0001) PTRACERS_advScheme = /* Advection Scheme */
(PID.TID 0000.0001)                      33
(PID.TID 0000.0001)     ;
(PID.TID 0000.0001) PTRACERS_SOM_Advection = /* tracer uses SOM advection scheme */
(PID.TID 0000.0001)                   F
(PID.TID 0000.0001)     ;
(PID.TID 0000.0001) PTRACERS_ImplVertAdv = /* implicit vert. advection flag */
(PID.TID 0000.0001)                   F
(PID.TID 0000.0001)     ;
(PID.TID 0000.0001) PTRACERS_diffKh = /* Laplacian Diffusivity */
(PID.TID 0000.0001)                 0.000000000000000E+00
(PID.TID 0000.0001)     ;
(PID.TID 0000.0001) PTRACERS_diffK4 = /* Biharmonic Diffusivity */
(PID.TID 0000.0001)                 0.000000000000000E+00
(PID.TID 0000.0001)     ;
(PID.TID 0000.0001) PTRACERS_diffKrNr = /* Vertical Diffusivity */
(PID.TID 0000.0001)    35 @  1.000000000000000E-05              /* K =  1: 35 */
(PID.TID 0000.0001)     ;
(PID.TID 0000.0001) PTRACERS_useGMRedi = /* apply GM-Redi */
(PID.TID 0000.0001)                   F
(PID.TID 0000.0001)     ;
(PID.TID 0000.0001) PTRACERS_useDWNSLP = /* apply DOWN-SLOPE Flow */
(PID.TID 0000.0001)                   F
(PID.TID 0000.0001)     ;
(PID.TID 0000.0001) PTRACERS_useKPP = /* apply KPP scheme */
(PID.TID 0000.0001)                   T
(PID.TID 0000.0001)     ;
(PID.TID 0000.0001) PTRACERS_ref = /* Reference vertical profile */
(PID.TID 0000.0001)     5 @  1.500000000000000E-01,             /* K =  1:  5 */
(PID.TID 0000.0001)    30 @  0.000000000000000E+00              /* K =  6: 35 */
(PID.TID 0000.0001)     ;
(PID.TID 0000.0001) PTRACERS_EvPrRn =/* tracer conc. in Evap. & Rain */
(PID.TID 0000.0001)                 1.234567000000000E+05
(PID.TID 0000.0001)     ;
(PID.TID 0000.0001)  -----------------------------------
(PID.TID 0000.0001)  tracer number :   72
(PID.TID 0000.0001) PTRACERS_names = /* Tracer short name */
(PID.TID 0000.0001)               'Chl07'
(PID.TID 0000.0001)     ;
(PID.TID 0000.0001) PTRACERS_long_names = /* Tracer long name */
(PID.TID 0000.0001)               ''
(PID.TID 0000.0001)     ;
(PID.TID 0000.0001) PTRACERS_ioLabel = /* tracer IO Label */
(PID.TID 0000.0001)               '72'
(PID.TID 0000.0001)     ;
(PID.TID 0000.0001) PTRACERS_advScheme = /* Advection Scheme */
(PID.TID 0000.0001)                      33
(PID.TID 0000.0001)     ;
(PID.TID 0000.0001) PTRACERS_SOM_Advection = /* tracer uses SOM advection scheme */
(PID.TID 0000.0001)                   F
(PID.TID 0000.0001)     ;
(PID.TID 0000.0001) PTRACERS_ImplVertAdv = /* implicit vert. advection flag */
(PID.TID 0000.0001)                   F
(PID.TID 0000.0001)     ;
(PID.TID 0000.0001) PTRACERS_diffKh = /* Laplacian Diffusivity */
(PID.TID 0000.0001)                 0.000000000000000E+00
(PID.TID 0000.0001)     ;
(PID.TID 0000.0001) PTRACERS_diffK4 = /* Biharmonic Diffusivity */
(PID.TID 0000.0001)                 0.000000000000000E+00
(PID.TID 0000.0001)     ;
(PID.TID 0000.0001) PTRACERS_diffKrNr = /* Vertical Diffusivity */
(PID.TID 0000.0001)    35 @  1.000000000000000E-05              /* K =  1: 35 */
(PID.TID 0000.0001)     ;
(PID.TID 0000.0001) PTRACERS_useGMRedi = /* apply GM-Redi */
(PID.TID 0000.0001)                   F
(PID.TID 0000.0001)     ;
(PID.TID 0000.0001) PTRACERS_useDWNSLP = /* apply DOWN-SLOPE Flow */
(PID.TID 0000.0001)                   F
(PID.TID 0000.0001)     ;
(PID.TID 0000.0001) PTRACERS_useKPP = /* apply KPP scheme */
(PID.TID 0000.0001)                   T
(PID.TID 0000.0001)     ;
(PID.TID 0000.0001) PTRACERS_ref = /* Reference vertical profile */
(PID.TID 0000.0001)     5 @  1.500000000000000E-01,             /* K =  1:  5 */
(PID.TID 0000.0001)    30 @  0.000000000000000E+00              /* K =  6: 35 */
(PID.TID 0000.0001)     ;
(PID.TID 0000.0001) PTRACERS_EvPrRn =/* tracer conc. in Evap. & Rain */
(PID.TID 0000.0001)                 1.234567000000000E+05
(PID.TID 0000.0001)     ;
(PID.TID 0000.0001)  -----------------------------------
(PID.TID 0000.0001)  tracer number :   73
(PID.TID 0000.0001) PTRACERS_names = /* Tracer short name */
(PID.TID 0000.0001)               'Chl08'
(PID.TID 0000.0001)     ;
(PID.TID 0000.0001) PTRACERS_long_names = /* Tracer long name */
(PID.TID 0000.0001)               ''
(PID.TID 0000.0001)     ;
(PID.TID 0000.0001) PTRACERS_ioLabel = /* tracer IO Label */
(PID.TID 0000.0001)               '73'
(PID.TID 0000.0001)     ;
(PID.TID 0000.0001) PTRACERS_advScheme = /* Advection Scheme */
(PID.TID 0000.0001)                      33
(PID.TID 0000.0001)     ;
(PID.TID 0000.0001) PTRACERS_SOM_Advection = /* tracer uses SOM advection scheme */
(PID.TID 0000.0001)                   F
(PID.TID 0000.0001)     ;
(PID.TID 0000.0001) PTRACERS_ImplVertAdv = /* implicit vert. advection flag */
(PID.TID 0000.0001)                   F
(PID.TID 0000.0001)     ;
(PID.TID 0000.0001) PTRACERS_diffKh = /* Laplacian Diffusivity */
(PID.TID 0000.0001)                 0.000000000000000E+00
(PID.TID 0000.0001)     ;
(PID.TID 0000.0001) PTRACERS_diffK4 = /* Biharmonic Diffusivity */
(PID.TID 0000.0001)                 0.000000000000000E+00
(PID.TID 0000.0001)     ;
(PID.TID 0000.0001) PTRACERS_diffKrNr = /* Vertical Diffusivity */
(PID.TID 0000.0001)    35 @  1.000000000000000E-05              /* K =  1: 35 */
(PID.TID 0000.0001)     ;
(PID.TID 0000.0001) PTRACERS_useGMRedi = /* apply GM-Redi */
(PID.TID 0000.0001)                   F
(PID.TID 0000.0001)     ;
(PID.TID 0000.0001) PTRACERS_useDWNSLP = /* apply DOWN-SLOPE Flow */
(PID.TID 0000.0001)                   F
(PID.TID 0000.0001)     ;
(PID.TID 0000.0001) PTRACERS_useKPP = /* apply KPP scheme */
(PID.TID 0000.0001)                   T
(PID.TID 0000.0001)     ;
(PID.TID 0000.0001) PTRACERS_ref = /* Reference vertical profile */
(PID.TID 0000.0001)     5 @  1.500000000000000E-01,             /* K =  1:  5 */
(PID.TID 0000.0001)    30 @  0.000000000000000E+00              /* K =  6: 35 */
(PID.TID 0000.0001)     ;
(PID.TID 0000.0001) PTRACERS_EvPrRn =/* tracer conc. in Evap. & Rain */
(PID.TID 0000.0001)                 1.234567000000000E+05
(PID.TID 0000.0001)     ;
(PID.TID 0000.0001)  -----------------------------------
(PID.TID 0000.0001)  tracer number :   74
(PID.TID 0000.0001) PTRACERS_names = /* Tracer short name */
(PID.TID 0000.0001)               'Chl09'
(PID.TID 0000.0001)     ;
(PID.TID 0000.0001) PTRACERS_long_names = /* Tracer long name */
(PID.TID 0000.0001)               ''
(PID.TID 0000.0001)     ;
(PID.TID 0000.0001) PTRACERS_ioLabel = /* tracer IO Label */
(PID.TID 0000.0001)               '74'
(PID.TID 0000.0001)     ;
(PID.TID 0000.0001) PTRACERS_advScheme = /* Advection Scheme */
(PID.TID 0000.0001)                      33
(PID.TID 0000.0001)     ;
(PID.TID 0000.0001) PTRACERS_SOM_Advection = /* tracer uses SOM advection scheme */
(PID.TID 0000.0001)                   F
(PID.TID 0000.0001)     ;
(PID.TID 0000.0001) PTRACERS_ImplVertAdv = /* implicit vert. advection flag */
(PID.TID 0000.0001)                   F
(PID.TID 0000.0001)     ;
(PID.TID 0000.0001) PTRACERS_diffKh = /* Laplacian Diffusivity */
(PID.TID 0000.0001)                 0.000000000000000E+00
(PID.TID 0000.0001)     ;
(PID.TID 0000.0001) PTRACERS_diffK4 = /* Biharmonic Diffusivity */
(PID.TID 0000.0001)                 0.000000000000000E+00
(PID.TID 0000.0001)     ;
(PID.TID 0000.0001) PTRACERS_diffKrNr = /* Vertical Diffusivity */
(PID.TID 0000.0001)    35 @  1.000000000000000E-05              /* K =  1: 35 */
(PID.TID 0000.0001)     ;
(PID.TID 0000.0001) PTRACERS_useGMRedi = /* apply GM-Redi */
(PID.TID 0000.0001)                   F
(PID.TID 0000.0001)     ;
(PID.TID 0000.0001) PTRACERS_useDWNSLP = /* apply DOWN-SLOPE Flow */
(PID.TID 0000.0001)                   F
(PID.TID 0000.0001)     ;
(PID.TID 0000.0001) PTRACERS_useKPP = /* apply KPP scheme */
(PID.TID 0000.0001)                   T
(PID.TID 0000.0001)     ;
(PID.TID 0000.0001) PTRACERS_ref = /* Reference vertical profile */
(PID.TID 0000.0001)     5 @  1.500000000000000E-01,             /* K =  1:  5 */
(PID.TID 0000.0001)    30 @  0.000000000000000E+00              /* K =  6: 35 */
(PID.TID 0000.0001)     ;
(PID.TID 0000.0001) PTRACERS_EvPrRn =/* tracer conc. in Evap. & Rain */
(PID.TID 0000.0001)                 1.234567000000000E+05
(PID.TID 0000.0001)     ;
(PID.TID 0000.0001)  -----------------------------------
(PID.TID 0000.0001)  tracer number :   75
(PID.TID 0000.0001) PTRACERS_names = /* Tracer short name */
(PID.TID 0000.0001)               'Chl10'
(PID.TID 0000.0001)     ;
(PID.TID 0000.0001) PTRACERS_long_names = /* Tracer long name */
(PID.TID 0000.0001)               ''
(PID.TID 0000.0001)     ;
(PID.TID 0000.0001) PTRACERS_ioLabel = /* tracer IO Label */
(PID.TID 0000.0001)               '75'
(PID.TID 0000.0001)     ;
(PID.TID 0000.0001) PTRACERS_advScheme = /* Advection Scheme */
(PID.TID 0000.0001)                      33
(PID.TID 0000.0001)     ;
(PID.TID 0000.0001) PTRACERS_SOM_Advection = /* tracer uses SOM advection scheme */
(PID.TID 0000.0001)                   F
(PID.TID 0000.0001)     ;
(PID.TID 0000.0001) PTRACERS_ImplVertAdv = /* implicit vert. advection flag */
(PID.TID 0000.0001)                   F
(PID.TID 0000.0001)     ;
(PID.TID 0000.0001) PTRACERS_diffKh = /* Laplacian Diffusivity */
(PID.TID 0000.0001)                 0.000000000000000E+00
(PID.TID 0000.0001)     ;
(PID.TID 0000.0001) PTRACERS_diffK4 = /* Biharmonic Diffusivity */
(PID.TID 0000.0001)                 0.000000000000000E+00
(PID.TID 0000.0001)     ;
(PID.TID 0000.0001) PTRACERS_diffKrNr = /* Vertical Diffusivity */
(PID.TID 0000.0001)    35 @  1.000000000000000E-05              /* K =  1: 35 */
(PID.TID 0000.0001)     ;
(PID.TID 0000.0001) PTRACERS_useGMRedi = /* apply GM-Redi */
(PID.TID 0000.0001)                   F
(PID.TID 0000.0001)     ;
(PID.TID 0000.0001) PTRACERS_useDWNSLP = /* apply DOWN-SLOPE Flow */
(PID.TID 0000.0001)                   F
(PID.TID 0000.0001)     ;
(PID.TID 0000.0001) PTRACERS_useKPP = /* apply KPP scheme */
(PID.TID 0000.0001)                   T
(PID.TID 0000.0001)     ;
(PID.TID 0000.0001) PTRACERS_ref = /* Reference vertical profile */
(PID.TID 0000.0001)     5 @  1.500000000000000E-01,             /* K =  1:  5 */
(PID.TID 0000.0001)    30 @  0.000000000000000E+00              /* K =  6: 35 */
(PID.TID 0000.0001)     ;
(PID.TID 0000.0001) PTRACERS_EvPrRn =/* tracer conc. in Evap. & Rain */
(PID.TID 0000.0001)                 1.234567000000000E+05
(PID.TID 0000.0001)     ;
(PID.TID 0000.0001)  -----------------------------------
(PID.TID 0000.0001)  tracer number :   76
(PID.TID 0000.0001) PTRACERS_names = /* Tracer short name */
(PID.TID 0000.0001)               'Chl11'
(PID.TID 0000.0001)     ;
(PID.TID 0000.0001) PTRACERS_long_names = /* Tracer long name */
(PID.TID 0000.0001)               ''
(PID.TID 0000.0001)     ;
(PID.TID 0000.0001) PTRACERS_ioLabel = /* tracer IO Label */
(PID.TID 0000.0001)               '76'
(PID.TID 0000.0001)     ;
(PID.TID 0000.0001) PTRACERS_advScheme = /* Advection Scheme */
(PID.TID 0000.0001)                      33
(PID.TID 0000.0001)     ;
(PID.TID 0000.0001) PTRACERS_SOM_Advection = /* tracer uses SOM advection scheme */
(PID.TID 0000.0001)                   F
(PID.TID 0000.0001)     ;
(PID.TID 0000.0001) PTRACERS_ImplVertAdv = /* implicit vert. advection flag */
(PID.TID 0000.0001)                   F
(PID.TID 0000.0001)     ;
(PID.TID 0000.0001) PTRACERS_diffKh = /* Laplacian Diffusivity */
(PID.TID 0000.0001)                 0.000000000000000E+00
(PID.TID 0000.0001)     ;
(PID.TID 0000.0001) PTRACERS_diffK4 = /* Biharmonic Diffusivity */
(PID.TID 0000.0001)                 0.000000000000000E+00
(PID.TID 0000.0001)     ;
(PID.TID 0000.0001) PTRACERS_diffKrNr = /* Vertical Diffusivity */
(PID.TID 0000.0001)    35 @  1.000000000000000E-05              /* K =  1: 35 */
(PID.TID 0000.0001)     ;
(PID.TID 0000.0001) PTRACERS_useGMRedi = /* apply GM-Redi */
(PID.TID 0000.0001)                   F
(PID.TID 0000.0001)     ;
(PID.TID 0000.0001) PTRACERS_useDWNSLP = /* apply DOWN-SLOPE Flow */
(PID.TID 0000.0001)                   F
(PID.TID 0000.0001)     ;
(PID.TID 0000.0001) PTRACERS_useKPP = /* apply KPP scheme */
(PID.TID 0000.0001)                   T
(PID.TID 0000.0001)     ;
(PID.TID 0000.0001) PTRACERS_ref = /* Reference vertical profile */
(PID.TID 0000.0001)     5 @  1.500000000000000E-01,             /* K =  1:  5 */
(PID.TID 0000.0001)    30 @  0.000000000000000E+00              /* K =  6: 35 */
(PID.TID 0000.0001)     ;
(PID.TID 0000.0001) PTRACERS_EvPrRn =/* tracer conc. in Evap. & Rain */
(PID.TID 0000.0001)                 1.234567000000000E+05
(PID.TID 0000.0001)     ;
(PID.TID 0000.0001)  -----------------------------------
(PID.TID 0000.0001)  tracer number :   77
(PID.TID 0000.0001) PTRACERS_names = /* Tracer short name */
(PID.TID 0000.0001)               'Chl12'
(PID.TID 0000.0001)     ;
(PID.TID 0000.0001) PTRACERS_long_names = /* Tracer long name */
(PID.TID 0000.0001)               ''
(PID.TID 0000.0001)     ;
(PID.TID 0000.0001) PTRACERS_ioLabel = /* tracer IO Label */
(PID.TID 0000.0001)               '77'
(PID.TID 0000.0001)     ;
(PID.TID 0000.0001) PTRACERS_advScheme = /* Advection Scheme */
(PID.TID 0000.0001)                      33
(PID.TID 0000.0001)     ;
(PID.TID 0000.0001) PTRACERS_SOM_Advection = /* tracer uses SOM advection scheme */
(PID.TID 0000.0001)                   F
(PID.TID 0000.0001)     ;
(PID.TID 0000.0001) PTRACERS_ImplVertAdv = /* implicit vert. advection flag */
(PID.TID 0000.0001)                   F
(PID.TID 0000.0001)     ;
(PID.TID 0000.0001) PTRACERS_diffKh = /* Laplacian Diffusivity */
(PID.TID 0000.0001)                 0.000000000000000E+00
(PID.TID 0000.0001)     ;
(PID.TID 0000.0001) PTRACERS_diffK4 = /* Biharmonic Diffusivity */
(PID.TID 0000.0001)                 0.000000000000000E+00
(PID.TID 0000.0001)     ;
(PID.TID 0000.0001) PTRACERS_diffKrNr = /* Vertical Diffusivity */
(PID.TID 0000.0001)    35 @  1.000000000000000E-05              /* K =  1: 35 */
(PID.TID 0000.0001)     ;
(PID.TID 0000.0001) PTRACERS_useGMRedi = /* apply GM-Redi */
(PID.TID 0000.0001)                   F
(PID.TID 0000.0001)     ;
(PID.TID 0000.0001) PTRACERS_useDWNSLP = /* apply DOWN-SLOPE Flow */
(PID.TID 0000.0001)                   F
(PID.TID 0000.0001)     ;
(PID.TID 0000.0001) PTRACERS_useKPP = /* apply KPP scheme */
(PID.TID 0000.0001)                   T
(PID.TID 0000.0001)     ;
(PID.TID 0000.0001) PTRACERS_ref = /* Reference vertical profile */
(PID.TID 0000.0001)     5 @  1.500000000000000E-01,             /* K =  1:  5 */
(PID.TID 0000.0001)    30 @  0.000000000000000E+00              /* K =  6: 35 */
(PID.TID 0000.0001)     ;
(PID.TID 0000.0001) PTRACERS_EvPrRn =/* tracer conc. in Evap. & Rain */
(PID.TID 0000.0001)                 1.234567000000000E+05
(PID.TID 0000.0001)     ;
(PID.TID 0000.0001)  -----------------------------------
(PID.TID 0000.0001)  tracer number :   78
(PID.TID 0000.0001) PTRACERS_names = /* Tracer short name */
(PID.TID 0000.0001)               'Chl13'
(PID.TID 0000.0001)     ;
(PID.TID 0000.0001) PTRACERS_long_names = /* Tracer long name */
(PID.TID 0000.0001)               ''
(PID.TID 0000.0001)     ;
(PID.TID 0000.0001) PTRACERS_ioLabel = /* tracer IO Label */
(PID.TID 0000.0001)               '78'
(PID.TID 0000.0001)     ;
(PID.TID 0000.0001) PTRACERS_advScheme = /* Advection Scheme */
(PID.TID 0000.0001)                      33
(PID.TID 0000.0001)     ;
(PID.TID 0000.0001) PTRACERS_SOM_Advection = /* tracer uses SOM advection scheme */
(PID.TID 0000.0001)                   F
(PID.TID 0000.0001)     ;
(PID.TID 0000.0001) PTRACERS_ImplVertAdv = /* implicit vert. advection flag */
(PID.TID 0000.0001)                   F
(PID.TID 0000.0001)     ;
(PID.TID 0000.0001) PTRACERS_diffKh = /* Laplacian Diffusivity */
(PID.TID 0000.0001)                 0.000000000000000E+00
(PID.TID 0000.0001)     ;
(PID.TID 0000.0001) PTRACERS_diffK4 = /* Biharmonic Diffusivity */
(PID.TID 0000.0001)                 0.000000000000000E+00
(PID.TID 0000.0001)     ;
(PID.TID 0000.0001) PTRACERS_diffKrNr = /* Vertical Diffusivity */
(PID.TID 0000.0001)    35 @  1.000000000000000E-05              /* K =  1: 35 */
(PID.TID 0000.0001)     ;
(PID.TID 0000.0001) PTRACERS_useGMRedi = /* apply GM-Redi */
(PID.TID 0000.0001)                   F
(PID.TID 0000.0001)     ;
(PID.TID 0000.0001) PTRACERS_useDWNSLP = /* apply DOWN-SLOPE Flow */
(PID.TID 0000.0001)                   F
(PID.TID 0000.0001)     ;
(PID.TID 0000.0001) PTRACERS_useKPP = /* apply KPP scheme */
(PID.TID 0000.0001)                   T
(PID.TID 0000.0001)     ;
(PID.TID 0000.0001) PTRACERS_ref = /* Reference vertical profile */
(PID.TID 0000.0001)     5 @  1.500000000000000E-01,             /* K =  1:  5 */
(PID.TID 0000.0001)    30 @  0.000000000000000E+00              /* K =  6: 35 */
(PID.TID 0000.0001)     ;
(PID.TID 0000.0001) PTRACERS_EvPrRn =/* tracer conc. in Evap. & Rain */
(PID.TID 0000.0001)                 1.234567000000000E+05
(PID.TID 0000.0001)     ;
(PID.TID 0000.0001)  -----------------------------------
(PID.TID 0000.0001)  tracer number :   79
(PID.TID 0000.0001) PTRACERS_names = /* Tracer short name */
(PID.TID 0000.0001)               'Chl14'
(PID.TID 0000.0001)     ;
(PID.TID 0000.0001) PTRACERS_long_names = /* Tracer long name */
(PID.TID 0000.0001)               ''
(PID.TID 0000.0001)     ;
(PID.TID 0000.0001) PTRACERS_ioLabel = /* tracer IO Label */
(PID.TID 0000.0001)               '79'
(PID.TID 0000.0001)     ;
(PID.TID 0000.0001) PTRACERS_advScheme = /* Advection Scheme */
(PID.TID 0000.0001)                      33
(PID.TID 0000.0001)     ;
(PID.TID 0000.0001) PTRACERS_SOM_Advection = /* tracer uses SOM advection scheme */
(PID.TID 0000.0001)                   F
(PID.TID 0000.0001)     ;
(PID.TID 0000.0001) PTRACERS_ImplVertAdv = /* implicit vert. advection flag */
(PID.TID 0000.0001)                   F
(PID.TID 0000.0001)     ;
(PID.TID 0000.0001) PTRACERS_diffKh = /* Laplacian Diffusivity */
(PID.TID 0000.0001)                 0.000000000000000E+00
(PID.TID 0000.0001)     ;
(PID.TID 0000.0001) PTRACERS_diffK4 = /* Biharmonic Diffusivity */
(PID.TID 0000.0001)                 0.000000000000000E+00
(PID.TID 0000.0001)     ;
(PID.TID 0000.0001) PTRACERS_diffKrNr = /* Vertical Diffusivity */
(PID.TID 0000.0001)    35 @  1.000000000000000E-05              /* K =  1: 35 */
(PID.TID 0000.0001)     ;
(PID.TID 0000.0001) PTRACERS_useGMRedi = /* apply GM-Redi */
(PID.TID 0000.0001)                   F
(PID.TID 0000.0001)     ;
(PID.TID 0000.0001) PTRACERS_useDWNSLP = /* apply DOWN-SLOPE Flow */
(PID.TID 0000.0001)                   F
(PID.TID 0000.0001)     ;
(PID.TID 0000.0001) PTRACERS_useKPP = /* apply KPP scheme */
(PID.TID 0000.0001)                   T
(PID.TID 0000.0001)     ;
(PID.TID 0000.0001) PTRACERS_ref = /* Reference vertical profile */
(PID.TID 0000.0001)     5 @  1.500000000000000E-01,             /* K =  1:  5 */
(PID.TID 0000.0001)    30 @  0.000000000000000E+00              /* K =  6: 35 */
(PID.TID 0000.0001)     ;
(PID.TID 0000.0001) PTRACERS_EvPrRn =/* tracer conc. in Evap. & Rain */
(PID.TID 0000.0001)                 1.234567000000000E+05
(PID.TID 0000.0001)     ;
(PID.TID 0000.0001)  -----------------------------------
(PID.TID 0000.0001)  tracer number :   80
(PID.TID 0000.0001) PTRACERS_names = /* Tracer short name */
(PID.TID 0000.0001)               'Chl15'
(PID.TID 0000.0001)     ;
(PID.TID 0000.0001) PTRACERS_long_names = /* Tracer long name */
(PID.TID 0000.0001)               ''
(PID.TID 0000.0001)     ;
(PID.TID 0000.0001) PTRACERS_ioLabel = /* tracer IO Label */
(PID.TID 0000.0001)               '80'
(PID.TID 0000.0001)     ;
(PID.TID 0000.0001) PTRACERS_advScheme = /* Advection Scheme */
(PID.TID 0000.0001)                      33
(PID.TID 0000.0001)     ;
(PID.TID 0000.0001) PTRACERS_SOM_Advection = /* tracer uses SOM advection scheme */
(PID.TID 0000.0001)                   F
(PID.TID 0000.0001)     ;
(PID.TID 0000.0001) PTRACERS_ImplVertAdv = /* implicit vert. advection flag */
(PID.TID 0000.0001)                   F
(PID.TID 0000.0001)     ;
(PID.TID 0000.0001) PTRACERS_diffKh = /* Laplacian Diffusivity */
(PID.TID 0000.0001)                 0.000000000000000E+00
(PID.TID 0000.0001)     ;
(PID.TID 0000.0001) PTRACERS_diffK4 = /* Biharmonic Diffusivity */
(PID.TID 0000.0001)                 0.000000000000000E+00
(PID.TID 0000.0001)     ;
(PID.TID 0000.0001) PTRACERS_diffKrNr = /* Vertical Diffusivity */
(PID.TID 0000.0001)    35 @  1.000000000000000E-05              /* K =  1: 35 */
(PID.TID 0000.0001)     ;
(PID.TID 0000.0001) PTRACERS_useGMRedi = /* apply GM-Redi */
(PID.TID 0000.0001)                   F
(PID.TID 0000.0001)     ;
(PID.TID 0000.0001) PTRACERS_useDWNSLP = /* apply DOWN-SLOPE Flow */
(PID.TID 0000.0001)                   F
(PID.TID 0000.0001)     ;
(PID.TID 0000.0001) PTRACERS_useKPP = /* apply KPP scheme */
(PID.TID 0000.0001)                   T
(PID.TID 0000.0001)     ;
(PID.TID 0000.0001) PTRACERS_ref = /* Reference vertical profile */
(PID.TID 0000.0001)     5 @  1.500000000000000E-01,             /* K =  1:  5 */
(PID.TID 0000.0001)    30 @  0.000000000000000E+00              /* K =  6: 35 */
(PID.TID 0000.0001)     ;
(PID.TID 0000.0001) PTRACERS_EvPrRn =/* tracer conc. in Evap. & Rain */
(PID.TID 0000.0001)                 1.234567000000000E+05
(PID.TID 0000.0001)     ;
(PID.TID 0000.0001)  -----------------------------------
(PID.TID 0000.0001) GCHEM_CHECK: #define ALLOW_GCHEM
(PID.TID 0000.0001) DARWIN_CHECK: #define ALLOW_DARWIN
(PID.TID 0000.0001) DARWIN_CHECK: iPtr darwin   PTRACERS_names
(PID.TID 0000.0001) DARWIN_CHECK:    1 DIC      DIC
(PID.TID 0000.0001) DARWIN_CHECK:    2 NH4      NH4
(PID.TID 0000.0001) DARWIN_CHECK:    3 NO2      NO2
(PID.TID 0000.0001) DARWIN_CHECK:    4 NO3      NO3
(PID.TID 0000.0001) DARWIN_CHECK:    5 PO4      PO4
(PID.TID 0000.0001) DARWIN_CHECK:    6 SiO2     SiO2
(PID.TID 0000.0001) DARWIN_CHECK:    7 FeT      FeT
(PID.TID 0000.0001) DARWIN_CHECK:    8 DOC      DOC
(PID.TID 0000.0001) DARWIN_CHECK:    9 DON      DON
(PID.TID 0000.0001) DARWIN_CHECK:   10 DOP      DOP
(PID.TID 0000.0001) DARWIN_CHECK:   11 DOFe     DOFe
(PID.TID 0000.0001) DARWIN_CHECK:   12 POC      POC
(PID.TID 0000.0001) DARWIN_CHECK:   13 PON      PON
(PID.TID 0000.0001) DARWIN_CHECK:   14 POP      POP
(PID.TID 0000.0001) DARWIN_CHECK:   15 POSi     POSi
(PID.TID 0000.0001) DARWIN_CHECK:   16 POFe     POFe
(PID.TID 0000.0001) DARWIN_CHECK:   17 PIC      PIC
(PID.TID 0000.0001) DARWIN_CHECK:   18 c    (1) c01
(PID.TID 0000.0001) DARWIN_CHECK:   19 c    (2) c02
(PID.TID 0000.0001) DARWIN_CHECK:   20 c    (3) c03
(PID.TID 0000.0001) DARWIN_CHECK:   21 c    (4) c04
(PID.TID 0000.0001) DARWIN_CHECK:   22 c    (5) c05
(PID.TID 0000.0001) DARWIN_CHECK:   23 c    (6) c06
(PID.TID 0000.0001) DARWIN_CHECK:   24 c    (7) c07
(PID.TID 0000.0001) DARWIN_CHECK:   25 c    (8) c08
(PID.TID 0000.0001) DARWIN_CHECK:   26 c    (9) c09
(PID.TID 0000.0001) DARWIN_CHECK:   27 c    (*) c10
(PID.TID 0000.0001) DARWIN_CHECK:   28 c    (*) c11
(PID.TID 0000.0001) DARWIN_CHECK:   29 c    (*) c12
(PID.TID 0000.0001) DARWIN_CHECK:   30 c    (*) c13
(PID.TID 0000.0001) DARWIN_CHECK:   31 c    (*) c14
(PID.TID 0000.0001) DARWIN_CHECK:   32 c    (*) c15
(PID.TID 0000.0001) DARWIN_CHECK:   33 c    (*) c16
(PID.TID 0000.0001) DARWIN_CHECK:   34 n    (1) n01
(PID.TID 0000.0001) DARWIN_CHECK:   35 n    (2) n02
(PID.TID 0000.0001) DARWIN_CHECK:   36 n    (3) n03
(PID.TID 0000.0001) DARWIN_CHECK:   37 n    (4) n04
(PID.TID 0000.0001) DARWIN_CHECK:   38 n    (5) n05
(PID.TID 0000.0001) DARWIN_CHECK:   39 n    (6) n06
(PID.TID 0000.0001) DARWIN_CHECK:   40 n    (7) n07
(PID.TID 0000.0001) DARWIN_CHECK:   41 n    (8) n08
(PID.TID 0000.0001) DARWIN_CHECK:   42 n    (9) n09
(PID.TID 0000.0001) DARWIN_CHECK:   43 n    (*) n10
(PID.TID 0000.0001) DARWIN_CHECK:   44 n    (*) n11
(PID.TID 0000.0001) DARWIN_CHECK:   45 n    (*) n12
(PID.TID 0000.0001) DARWIN_CHECK:   46 n    (*) n13
(PID.TID 0000.0001) DARWIN_CHECK:   47 n    (*) n14
(PID.TID 0000.0001) DARWIN_CHECK:   48 n    (*) n15
(PID.TID 0000.0001) DARWIN_CHECK:   49 n    (*) n16
(PID.TID 0000.0001) DARWIN_CHECK:   50 fe   (1) fe01
(PID.TID 0000.0001) DARWIN_CHECK:   51 fe   (2) fe02
(PID.TID 0000.0001) DARWIN_CHECK:   52 fe   (3) fe03
(PID.TID 0000.0001) DARWIN_CHECK:   53 fe   (4) fe04
(PID.TID 0000.0001) DARWIN_CHECK:   54 fe   (5) fe05
(PID.TID 0000.0001) DARWIN_CHECK:   55 fe   (6) fe06
(PID.TID 0000.0001) DARWIN_CHECK:   56 fe   (7) fe07
(PID.TID 0000.0001) DARWIN_CHECK:   57 fe   (8) fe08
(PID.TID 0000.0001) DARWIN_CHECK:   58 fe   (9) fe09
(PID.TID 0000.0001) DARWIN_CHECK:   59 fe   (*) fe10
(PID.TID 0000.0001) DARWIN_CHECK:   60 fe   (*) fe11
(PID.TID 0000.0001) DARWIN_CHECK:   61 fe   (*) fe12
(PID.TID 0000.0001) DARWIN_CHECK:   62 fe   (*) fe13
(PID.TID 0000.0001) DARWIN_CHECK:   63 fe   (*) fe14
(PID.TID 0000.0001) DARWIN_CHECK:   64 fe   (*) fe15
(PID.TID 0000.0001) DARWIN_CHECK:   65 fe   (*) fe16
(PID.TID 0000.0001) DARWIN_CHECK:   66 Chl  (1) Chl01
(PID.TID 0000.0001) DARWIN_CHECK:   67 Chl  (2) Chl02
(PID.TID 0000.0001) DARWIN_CHECK:   68 Chl  (3) Chl03
(PID.TID 0000.0001) DARWIN_CHECK:   69 Chl  (4) Chl04
(PID.TID 0000.0001) DARWIN_CHECK:   70 Chl  (5) Chl05
(PID.TID 0000.0001) DARWIN_CHECK:   71 Chl  (6) Chl06
(PID.TID 0000.0001) DARWIN_CHECK:   72 Chl  (7) Chl07
(PID.TID 0000.0001) DARWIN_CHECK:   73 Chl  (8) Chl08
(PID.TID 0000.0001) DARWIN_CHECK:   74 Chl  (9) Chl09
(PID.TID 0000.0001) DARWIN_CHECK:   75 Chl  (*) Chl10
(PID.TID 0000.0001) DARWIN_CHECK:   76 Chl  (*) Chl11
(PID.TID 0000.0001) DARWIN_CHECK:   77 Chl  (*) Chl12
(PID.TID 0000.0001) DARWIN_CHECK:   78 Chl  (*) Chl13
(PID.TID 0000.0001) DARWIN_CHECK:   79 Chl  (*) Chl14
(PID.TID 0000.0001) DARWIN_CHECK:   80 Chl  (*) Chl15
(PID.TID 0000.0001) GAD_CHECK: #define ALLOW_GENERIC_ADVDIFF
(PID.TID 0000.0001) // =======================================================
(PID.TID 0000.0001) // Check Model config. (CONFIG_CHECK):
(PID.TID 0000.0001) // CONFIG_CHECK : Normal End
(PID.TID 0000.0001) // =======================================================
(PID.TID 0000.0001) 
(PID.TID 0000.0001)  MDS_READ_FIELD: opening global file: ../input/input/loc1_temp_janprof.bin
(PID.TID 0000.0001)  MDS_READ_FIELD: opening global file: ../input/input/salt_uniform.bin
(PID.TID 0000.0001) Start initial hydrostatic pressure computation
(PID.TID 0000.0001) Pressure is predetermined for buoyancyRelation OCEANIC
(PID.TID 0000.0001) 
(PID.TID 0000.0001)  MDS_READ_FIELD: opening global file: ../input/input/wind_u_mon.bin
(PID.TID 0000.0001)  MDS_READ_FIELD: opening global file: ../input/input/wind_v_mon.bin
(PID.TID 0000.0001)  MDS_READ_FIELD: opening global file: ../input/input/loc1_temp_monsurf.bin
(PID.TID 0000.0001)  write diagnostics summary to file ioUnit:      6
Iter.Nb:         0 ; Time(s):  0.0000000000000E+00
------------------------------------------------------------------------
2D/3D diagnostics: Number of lists:     1
------------------------------------------------------------------------
listId=    1 ; file name: darwin
 nFlds, nActive,       freq     &     phase        , nLev               
  108  |  108  |     10800.000000         0.000000 |  35
 levels:   1   2   3   4   5   6   7   8   9  10  11  12  13  14  15  16  17  18  19  20  21  22  23  24  25
 levels:  26  27  28  29  30  31  32  33  34  35
 diag# | name   |   ipt  |  iMate | kLev|   count |   mate.C|           
   156 |TRAC01  |      1 |      0 |  35 |       0 |
   169 |TRAC02  |     36 |      0 |  35 |       0 |
   182 |TRAC03  |     71 |      0 |  35 |       0 |
   195 |TRAC04  |    106 |      0 |  35 |       0 |
   208 |TRAC05  |    141 |      0 |  35 |       0 |
   221 |TRAC06  |    176 |      0 |  35 |       0 |
   234 |TRAC07  |    211 |      0 |  35 |       0 |
   247 |TRAC08  |    246 |      0 |  35 |       0 |
   260 |TRAC09  |    281 |      0 |  35 |       0 |
   273 |TRAC10  |    316 |      0 |  35 |       0 |
   286 |TRAC11  |    351 |      0 |  35 |       0 |
   299 |TRAC12  |    386 |      0 |  35 |       0 |
   312 |TRAC13  |    421 |      0 |  35 |       0 |
   325 |TRAC14  |    456 |      0 |  35 |       0 |
   338 |TRAC15  |    491 |      0 |  35 |       0 |
   351 |TRAC16  |    526 |      0 |  35 |       0 |
   364 |TRAC17  |    561 |      0 |  35 |       0 |
   377 |TRAC18  |    596 |      0 |  35 |       0 |
   390 |TRAC19  |    631 |      0 |  35 |       0 |
   403 |TRAC20  |    666 |      0 |  35 |       0 |
   416 |TRAC21  |    701 |      0 |  35 |       0 |
   429 |TRAC22  |    736 |      0 |  35 |       0 |
   442 |TRAC23  |    771 |      0 |  35 |       0 |
   455 |TRAC24  |    806 |      0 |  35 |       0 |
   468 |TRAC25  |    841 |      0 |  35 |       0 |
   481 |TRAC26  |    876 |      0 |  35 |       0 |
   494 |TRAC27  |    911 |      0 |  35 |       0 |
   507 |TRAC28  |    946 |      0 |  35 |       0 |
   520 |TRAC29  |    981 |      0 |  35 |       0 |
   533 |TRAC30  |   1016 |      0 |  35 |       0 |
   546 |TRAC31  |   1051 |      0 |  35 |       0 |
   559 |TRAC32  |   1086 |      0 |  35 |       0 |
   572 |TRAC33  |   1121 |      0 |  35 |       0 |
   585 |TRAC34  |   1156 |      0 |  35 |       0 |
   598 |TRAC35  |   1191 |      0 |  35 |       0 |
   611 |TRAC36  |   1226 |      0 |  35 |       0 |
   624 |TRAC37  |   1261 |      0 |  35 |       0 |
   637 |TRAC38  |   1296 |      0 |  35 |       0 |
   650 |TRAC39  |   1331 |      0 |  35 |       0 |
   663 |TRAC40  |   1366 |      0 |  35 |       0 |
   676 |TRAC41  |   1401 |      0 |  35 |       0 |
   689 |TRAC42  |   1436 |      0 |  35 |       0 |
   702 |TRAC43  |   1471 |      0 |  35 |       0 |
   715 |TRAC44  |   1506 |      0 |  35 |       0 |
   728 |TRAC45  |   1541 |      0 |  35 |       0 |
   741 |TRAC46  |   1576 |      0 |  35 |       0 |
   754 |TRAC47  |   1611 |      0 |  35 |       0 |
   767 |TRAC48  |   1646 |      0 |  35 |       0 |
   780 |TRAC49  |   1681 |      0 |  35 |       0 |
   793 |TRAC50  |   1716 |      0 |  35 |       0 |
   806 |TRAC51  |   1751 |      0 |  35 |       0 |
   819 |TRAC52  |   1786 |      0 |  35 |       0 |
   832 |TRAC53  |   1821 |      0 |  35 |       0 |
   845 |TRAC54  |   1856 |      0 |  35 |       0 |
   858 |TRAC55  |   1891 |      0 |  35 |       0 |
   871 |TRAC56  |   1926 |      0 |  35 |       0 |
   884 |TRAC57  |   1961 |      0 |  35 |       0 |
   897 |TRAC58  |   1996 |      0 |  35 |       0 |
   910 |TRAC59  |   2031 |      0 |  35 |       0 |
   923 |TRAC60  |   2066 |      0 |  35 |       0 |
   936 |TRAC61  |   2101 |      0 |  35 |       0 |
   949 |TRAC62  |   2136 |      0 |  35 |       0 |
   962 |TRAC63  |   2171 |      0 |  35 |       0 |
   975 |TRAC64  |   2206 |      0 |  35 |       0 |
   988 |TRAC65  |   2241 |      0 |  35 |       0 |
  1001 |TRAC66  |   2276 |      0 |  35 |       0 |
  1014 |TRAC67  |   2311 |      0 |  35 |       0 |
  1027 |TRAC68  |   2346 |      0 |  35 |       0 |
  1040 |TRAC69  |   2381 |      0 |  35 |       0 |
  1053 |TRAC70  |   2416 |      0 |  35 |       0 |
  1066 |TRAC71  |   2451 |      0 |  35 |       0 |
  1079 |TRAC72  |   2486 |      0 |  35 |       0 |
  1092 |TRAC73  |   2521 |      0 |  35 |       0 |
  1105 |TRAC74  |   2556 |      0 |  35 |       0 |
  1118 |TRAC75  |   2591 |      0 |  35 |       0 |
  1131 |TRAC76  |   2626 |      0 |  35 |       0 |
  1144 |TRAC77  |   2661 |      0 |  35 |       0 |
  1157 |TRAC78  |   2696 |      0 |  35 |       0 |
  1170 |TRAC79  |   2731 |      0 |  35 |       0 |
  1183 |TRAC80  |   2766 |      0 |  35 |       0 |
  1201 |PAR01   |   2801 |      0 |  35 |       0 |
  1208 |DIC_c01 |   2836 |      0 |  35 |       0 |
  1219 |DIC_c02 |   2871 |      0 |  35 |       0 |
  1209 |c01_DOC |   2906 |      0 |  35 |       0 |
  1220 |c02_DOC |   2941 |      0 |  35 |       0 |
  1210 |c01_POC |   2976 |      0 |  35 |       0 |
  1221 |c02_POC |   3011 |      0 |  35 |       0 |
  1200 |PARF    |   3046 |      0 |  35 |       0 |
  1197 |atten   |   3081 |      0 |  35 |       0 |
  1199 |surfPAR |   3116 |      0 |  35 |       0 |
  1198 |exfPAR  |   3151 |      0 |  35 |       0 |
  1202 |limn01  |   3186 |      0 |  35 |       0 |
  1203 |limp01  |   3221 |      0 |  35 |       0 |
  1204 |limsi01 |   3256 |      0 |  35 |       0 |
  1205 |limfe01 |   3291 |      0 |  35 |       0 |
  1206 |limI01  |   3326 |      0 |  35 |       0 |
  1207 |limT01  |   3361 |      0 |  35 |       0 |
  1211 |c01_c   |   3396 |      0 |  35 |       0 |
  1222 |c02_c   |   3431 |      0 |  35 |       0 |
  1234 |c_c03   |   3466 |      0 |  35 |       0 |
  1245 |c_c04   |   3501 |      0 |  35 |       0 |
  1378 |c_DOC   |   3536 |      0 |  35 |       0 |
  1379 |c_POC   |   3571 |      0 |  35 |       0 |
  1380 |c_PIC   |   3606 |      0 |  35 |       0 |
  1381 |n_DON   |   3641 |      0 |  35 |       0 |
  1382 |n_PON   |   3676 |      0 |  35 |       0 |
  1383 |p_DOP   |   3711 |      0 |  35 |       0 |
  1384 |p_POP   |   3746 |      0 |  35 |       0 |
------------------------------------------------------------------------
Global & Regional Statistics diagnostics: Number of lists:     0
------------------------------------------------------------------------
(PID.TID 0000.0001)  MDS_READ_FIELD: opening global file: ../input/input/loc1_DIC_annprof.bin
(PID.TID 0000.0001)  MDS_READ_FIELD: opening global file: ../input/input/loc1_NH4_run83_janprof.bin
(PID.TID 0000.0001)  MDS_READ_FIELD: opening global file: ../input/input/loc1_NO2_run83_janprof.bin
(PID.TID 0000.0001)  MDS_READ_FIELD: opening global file: ../input/input/loc1_nitr_janprof.bin
(PID.TID 0000.0001)  MDS_READ_FIELD: opening global file: ../input/input/loc1_FeT_run83_janprof.bin
(PID.TID 0000.0001)  MDS_READ_FIELD: opening global file: ../input/input/loc1_DOC_janprof.bin
(PID.TID 0000.0001)  MDS_READ_FIELD: opening global file: ../input/input/loc1_DON_run83_janprof.bin
(PID.TID 0000.0001)  MDS_READ_FIELD: opening global file: ../input/input/loc1_DOFe_run83_janprof.bin
(PID.TID 0000.0001)  MDS_READ_FIELD: opening global file: ../input/input/loc1_POC_janprof.bin
(PID.TID 0000.0001)  MDS_READ_FIELD: opening global file: ../input/input/loc1_PON_run83_janprof.bin
(PID.TID 0000.0001)  MDS_READ_FIELD: opening global file: ../input/input/loc1_POFe_run83_janprof.bin
(PID.TID 0000.0001) // =======================================================
(PID.TID 0000.0001) // Model current state
(PID.TID 0000.0001) // =======================================================
(PID.TID 0000.0001) 
(PID.TID 0000.0001) // =======================================================
(PID.TID 0000.0001) // Begin MONITOR dynamic field statistics
(PID.TID 0000.0001) // =======================================================
(PID.TID 0000.0001) %MON time_tsnumber                =                     0
(PID.TID 0000.0001) %MON time_secondsf                =   0.0000000000000000E+00
(PID.TID 0000.0001) %MON dynstat_eta_max              =   0.0000000000000000E+00
(PID.TID 0000.0001) %MON dynstat_eta_min              =   0.0000000000000000E+00
(PID.TID 0000.0001) %MON dynstat_eta_mean             =   0.0000000000000000E+00
(PID.TID 0000.0001) %MON dynstat_eta_sd               =   0.0000000000000000E+00
(PID.TID 0000.0001) %MON dynstat_eta_del2             =   0.0000000000000000E+00
(PID.TID 0000.0001) %MON dynstat_uvel_max             =   0.0000000000000000E+00
(PID.TID 0000.0001) %MON dynstat_uvel_min             =   0.0000000000000000E+00
(PID.TID 0000.0001) %MON dynstat_uvel_mean            =   0.0000000000000000E+00
(PID.TID 0000.0001) %MON dynstat_uvel_sd              =   0.0000000000000000E+00
(PID.TID 0000.0001) %MON dynstat_uvel_del2            =   0.0000000000000000E+00
(PID.TID 0000.0001) %MON dynstat_vvel_max             =   0.0000000000000000E+00
(PID.TID 0000.0001) %MON dynstat_vvel_min             =   0.0000000000000000E+00
(PID.TID 0000.0001) %MON dynstat_vvel_mean            =   0.0000000000000000E+00
(PID.TID 0000.0001) %MON dynstat_vvel_sd              =   0.0000000000000000E+00
(PID.TID 0000.0001) %MON dynstat_vvel_del2            =   0.0000000000000000E+00
(PID.TID 0000.0001) %MON dynstat_wvel_max             =   0.0000000000000000E+00
(PID.TID 0000.0001) %MON dynstat_wvel_min             =   0.0000000000000000E+00
(PID.TID 0000.0001) %MON dynstat_wvel_mean            =   0.0000000000000000E+00
(PID.TID 0000.0001) %MON dynstat_wvel_sd              =   0.0000000000000000E+00
(PID.TID 0000.0001) %MON dynstat_wvel_del2            =   0.0000000000000000E+00
(PID.TID 0000.0001) %MON dynstat_theta_max            =   6.5096502304077148E+00
(PID.TID 0000.0001) %MON dynstat_theta_min            =  -9.3889999389648438E-01
(PID.TID 0000.0001) %MON dynstat_theta_mean           =   1.5603987870468788E-01
(PID.TID 0000.0001) %MON dynstat_theta_sd             =   2.0853921626072607E+00
(PID.TID 0000.0001) %MON dynstat_theta_del2           =   0.0000000000000000E+00
(PID.TID 0000.0001) %MON dynstat_salt_max             =   3.5000000000000000E+01
(PID.TID 0000.0001) %MON dynstat_salt_min             =   3.5000000000000000E+01
(PID.TID 0000.0001) %MON dynstat_salt_mean            =   3.5000000000000007E+01
(PID.TID 0000.0001) %MON dynstat_salt_sd              =   7.1054273576010019E-15
(PID.TID 0000.0001) %MON dynstat_salt_del2            =   0.0000000000000000E+00
(PID.TID 0000.0001) %MON dynstat_sst_max              =   6.5096502304077148E+00
(PID.TID 0000.0001) %MON dynstat_sst_min              =   6.5096502304077148E+00
(PID.TID 0000.0001) %MON dynstat_sst_mean             =   6.5096502304077148E+00
(PID.TID 0000.0001) %MON dynstat_sst_sd               =   0.0000000000000000E+00
(PID.TID 0000.0001) %MON dynstat_sst_del2             =   0.0000000000000000E+00
(PID.TID 0000.0001) %MON dynstat_sss_max              =   3.5000000000000000E+01
(PID.TID 0000.0001) %MON dynstat_sss_min              =   3.5000000000000000E+01
(PID.TID 0000.0001) %MON dynstat_sss_mean             =   3.5000000000000000E+01
(PID.TID 0000.0001) %MON dynstat_sss_sd               =   0.0000000000000000E+00
(PID.TID 0000.0001) %MON dynstat_sss_del2             =   0.0000000000000000E+00
(PID.TID 0000.0001) %MON forcing_qnet_max             =   0.0000000000000000E+00
(PID.TID 0000.0001) %MON forcing_qnet_min             =   0.0000000000000000E+00
(PID.TID 0000.0001) %MON forcing_qnet_mean            =   0.0000000000000000E+00
(PID.TID 0000.0001) %MON forcing_qnet_sd              =   0.0000000000000000E+00
(PID.TID 0000.0001) %MON forcing_qnet_del2            =   0.0000000000000000E+00
(PID.TID 0000.0001) %MON forcing_qsw_max              =   0.0000000000000000E+00
(PID.TID 0000.0001) %MON forcing_qsw_min              =   0.0000000000000000E+00
(PID.TID 0000.0001) %MON forcing_qsw_mean             =   0.0000000000000000E+00
(PID.TID 0000.0001) %MON forcing_qsw_sd               =   0.0000000000000000E+00
(PID.TID 0000.0001) %MON forcing_qsw_del2             =   0.0000000000000000E+00
(PID.TID 0000.0001) %MON forcing_empmr_max            =   0.0000000000000000E+00
(PID.TID 0000.0001) %MON forcing_empmr_min            =   0.0000000000000000E+00
(PID.TID 0000.0001) %MON forcing_empmr_mean           =   0.0000000000000000E+00
(PID.TID 0000.0001) %MON forcing_empmr_sd             =   0.0000000000000000E+00
(PID.TID 0000.0001) %MON forcing_empmr_del2           =   0.0000000000000000E+00
(PID.TID 0000.0001) %MON forcing_fu_max               =   1.8626669645309448E+00
(PID.TID 0000.0001) %MON forcing_fu_min               =   1.8626669645309448E+00
(PID.TID 0000.0001) %MON forcing_fu_mean              =   1.8626669645309448E+00
(PID.TID 0000.0001) %MON forcing_fu_sd                =   0.0000000000000000E+00
(PID.TID 0000.0001) %MON forcing_fu_del2              =   0.0000000000000000E+00
(PID.TID 0000.0001) %MON forcing_fv_max               =   1.5513329505920410E+00
(PID.TID 0000.0001) %MON forcing_fv_min               =   1.5513329505920410E+00
(PID.TID 0000.0001) %MON forcing_fv_mean              =   1.5513329505920410E+00
(PID.TID 0000.0001) %MON forcing_fv_sd                =   0.0000000000000000E+00
(PID.TID 0000.0001) %MON forcing_fv_del2              =   0.0000000000000000E+00
(PID.TID 0000.0001) %MON advcfl_uvel_max              =   0.0000000000000000E+00
(PID.TID 0000.0001) %MON advcfl_vvel_max              =   0.0000000000000000E+00
(PID.TID 0000.0001) %MON advcfl_wvel_max              =   0.0000000000000000E+00
(PID.TID 0000.0001) %MON advcfl_W_hf_max              =   0.0000000000000000E+00
(PID.TID 0000.0001) %MON pe_b_mean                    =   0.0000000000000000E+00
(PID.TID 0000.0001) %MON ke_max                       =   0.0000000000000000E+00
(PID.TID 0000.0001) %MON ke_mean                      =   0.0000000000000000E+00
(PID.TID 0000.0001) %MON ke_vol                       =   4.1199767883484609E+13
(PID.TID 0000.0001) %MON vort_r_min                   =   0.0000000000000000E+00
(PID.TID 0000.0001) %MON vort_r_max                   =   0.0000000000000000E+00
(PID.TID 0000.0001) %MON vort_a_mean                  =  -4.5067801836624727E-05
(PID.TID 0000.0001) %MON vort_a_sd                    =  -4.1359030627651384E-25
(PID.TID 0000.0001) %MON vort_p_mean                  =  -4.5067801836624727E-05
(PID.TID 0000.0001) %MON vort_p_sd                    =   0.0000000000000000E+00
(PID.TID 0000.0001) %MON surfExpan_theta_mean         =   0.0000000000000000E+00
(PID.TID 0000.0001) %MON surfExpan_salt_mean          =   0.0000000000000000E+00
(PID.TID 0000.0001) // =======================================================
(PID.TID 0000.0001) // End MONITOR dynamic field statistics
(PID.TID 0000.0001) // =======================================================
(PID.TID 0000.0001) // =======================================================
(PID.TID 0000.0001) // Begin MONITOR ptracer field statistics
(PID.TID 0000.0001) // =======================================================
(PID.TID 0000.0001) %MON trcstat_ptracer01_max        =   2.1623999023437500E+03
(PID.TID 0000.0001) %MON trcstat_ptracer01_min        =   2.0848964843750000E+03
(PID.TID 0000.0001) %MON trcstat_ptracer01_mean       =   2.1557233177698054E+03
(PID.TID 0000.0001) %MON trcstat_ptracer01_sd         =   1.1620928165015126E+01
(PID.TID 0000.0001) %MON trcstat_ptracer01_del2       =   0.0000000000000000E+00
(PID.TID 0000.0001) %MON trcstat_ptracer02_max        =   2.2952675353735685E-03
(PID.TID 0000.0001) %MON trcstat_ptracer02_min        =   0.0000000000000000E+00
(PID.TID 0000.0001) %MON trcstat_ptracer02_mean       =   3.3611169662653011E-04
(PID.TID 0000.0001) %MON trcstat_ptracer02_sd         =   4.7743954057330597E-04
(PID.TID 0000.0001) %MON trcstat_ptracer02_del2       =   0.0000000000000000E+00
(PID.TID 0000.0001) %MON trcstat_ptracer03_max        =   3.7918146699666977E-02
(PID.TID 0000.0001) %MON trcstat_ptracer03_min        =   0.0000000000000000E+00
(PID.TID 0000.0001) %MON trcstat_ptracer03_mean       =   7.8145818443747725E-03
(PID.TID 0000.0001) %MON trcstat_ptracer03_sd         =   1.0806319055981005E-02
(PID.TID 0000.0001) %MON trcstat_ptracer03_del2       =   0.0000000000000000E+00
(PID.TID 0000.0001) %MON trcstat_ptracer04_max        =   1.5341600418090820E+01
(PID.TID 0000.0001) %MON trcstat_ptracer04_min        =   1.1842899322509766E+01
(PID.TID 0000.0001) %MON trcstat_ptracer04_mean       =   1.4471561560132814E+01
(PID.TID 0000.0001) %MON trcstat_ptracer04_sd         =   9.1988937719317865E-01
(PID.TID 0000.0001) %MON trcstat_ptracer04_del2       =   0.0000000000000000E+00
(PID.TID 0000.0001) %MON trcstat_ptracer05_max        =   0.0000000000000000E+00
(PID.TID 0000.0001) %MON trcstat_ptracer05_min        =   0.0000000000000000E+00
(PID.TID 0000.0001) %MON trcstat_ptracer05_mean       =   0.0000000000000000E+00
(PID.TID 0000.0001) %MON trcstat_ptracer05_sd         =   0.0000000000000000E+00
(PID.TID 0000.0001) %MON trcstat_ptracer05_del2       =   0.0000000000000000E+00
(PID.TID 0000.0001) %MON trcstat_ptracer06_max        =   0.0000000000000000E+00
(PID.TID 0000.0001) %MON trcstat_ptracer06_min        =   0.0000000000000000E+00
(PID.TID 0000.0001) %MON trcstat_ptracer06_mean       =   0.0000000000000000E+00
(PID.TID 0000.0001) %MON trcstat_ptracer06_sd         =   0.0000000000000000E+00
(PID.TID 0000.0001) %MON trcstat_ptracer06_del2       =   0.0000000000000000E+00
(PID.TID 0000.0001) %MON trcstat_ptracer07_max        =   9.1629312373697758E-04
(PID.TID 0000.0001) %MON trcstat_ptracer07_min        =   0.0000000000000000E+00
(PID.TID 0000.0001) %MON trcstat_ptracer07_mean       =   5.7980704863418500E-04
(PID.TID 0000.0001) %MON trcstat_ptracer07_sd         =   3.7871275821034538E-04
(PID.TID 0000.0001) %MON trcstat_ptracer07_del2       =   0.0000000000000000E+00
(PID.TID 0000.0001) %MON trcstat_ptracer08_max        =   0.0000000000000000E+00
(PID.TID 0000.0001) %MON trcstat_ptracer08_min        =   0.0000000000000000E+00
(PID.TID 0000.0001) %MON trcstat_ptracer08_mean       =   0.0000000000000000E+00
(PID.TID 0000.0001) %MON trcstat_ptracer08_sd         =   0.0000000000000000E+00
(PID.TID 0000.0001) %MON trcstat_ptracer08_del2       =   0.0000000000000000E+00
(PID.TID 0000.0001) %MON trcstat_ptracer09_max        =   2.7267783880233765E-01
(PID.TID 0000.0001) %MON trcstat_ptracer09_min        =   0.0000000000000000E+00
(PID.TID 0000.0001) %MON trcstat_ptracer09_mean       =   3.3067342309608998E-02
(PID.TID 0000.0001) %MON trcstat_ptracer09_sd         =   8.3679774951305214E-02
(PID.TID 0000.0001) %MON trcstat_ptracer09_del2       =   0.0000000000000000E+00
(PID.TID 0000.0001) %MON trcstat_ptracer10_max        =   0.0000000000000000E+00
(PID.TID 0000.0001) %MON trcstat_ptracer10_min        =   0.0000000000000000E+00
(PID.TID 0000.0001) %MON trcstat_ptracer10_mean       =   0.0000000000000000E+00
(PID.TID 0000.0001) %MON trcstat_ptracer10_sd         =   0.0000000000000000E+00
(PID.TID 0000.0001) %MON trcstat_ptracer10_del2       =   0.0000000000000000E+00
(PID.TID 0000.0001) %MON trcstat_ptracer11_max        =   1.7042364561348222E-05
(PID.TID 0000.0001) %MON trcstat_ptracer11_min        =   0.0000000000000000E+00
(PID.TID 0000.0001) %MON trcstat_ptracer11_mean       =   2.0667088931326983E-06
(PID.TID 0000.0001) %MON trcstat_ptracer11_sd         =   5.2299859300250572E-06
(PID.TID 0000.0001) %MON trcstat_ptracer11_del2       =   0.0000000000000000E+00
(PID.TID 0000.0001) %MON trcstat_ptracer12_max        =   0.0000000000000000E+00
(PID.TID 0000.0001) %MON trcstat_ptracer12_min        =   0.0000000000000000E+00
(PID.TID 0000.0001) %MON trcstat_ptracer12_mean       =   0.0000000000000000E+00
(PID.TID 0000.0001) %MON trcstat_ptracer12_sd         =   0.0000000000000000E+00
(PID.TID 0000.0001) %MON trcstat_ptracer12_del2       =   0.0000000000000000E+00
(PID.TID 0000.0001) %MON trcstat_ptracer13_max        =   3.0367041006684303E-02
(PID.TID 0000.0001) %MON trcstat_ptracer13_min        =   0.0000000000000000E+00
(PID.TID 0000.0001) %MON trcstat_ptracer13_mean       =   1.4939297063913042E-02
(PID.TID 0000.0001) %MON trcstat_ptracer13_sd         =   1.1118076667108259E-02
(PID.TID 0000.0001) %MON trcstat_ptracer13_del2       =   0.0000000000000000E+00
(PID.TID 0000.0001) %MON trcstat_ptracer14_max        =   0.0000000000000000E+00
(PID.TID 0000.0001) %MON trcstat_ptracer14_min        =   0.0000000000000000E+00
(PID.TID 0000.0001) %MON trcstat_ptracer14_mean       =   0.0000000000000000E+00
(PID.TID 0000.0001) %MON trcstat_ptracer14_sd         =   0.0000000000000000E+00
(PID.TID 0000.0001) %MON trcstat_ptracer14_del2       =   0.0000000000000000E+00
(PID.TID 0000.0001) %MON trcstat_ptracer15_max        =   0.0000000000000000E+00
(PID.TID 0000.0001) %MON trcstat_ptracer15_min        =   0.0000000000000000E+00
(PID.TID 0000.0001) %MON trcstat_ptracer15_mean       =   0.0000000000000000E+00
(PID.TID 0000.0001) %MON trcstat_ptracer15_sd         =   0.0000000000000000E+00
(PID.TID 0000.0001) %MON trcstat_ptracer15_del2       =   0.0000000000000000E+00
(PID.TID 0000.0001) %MON trcstat_ptracer16_max        =   1.8979401374963345E-06
(PID.TID 0000.0001) %MON trcstat_ptracer16_min        =   0.0000000000000000E+00
(PID.TID 0000.0001) %MON trcstat_ptracer16_mean       =   9.3370607446663094E-07
(PID.TID 0000.0001) %MON trcstat_ptracer16_sd         =   6.9487981699102024E-07
(PID.TID 0000.0001) %MON trcstat_ptracer16_del2       =   0.0000000000000000E+00
(PID.TID 0000.0001) %MON trcstat_ptracer17_max        =   0.0000000000000000E+00
(PID.TID 0000.0001) %MON trcstat_ptracer17_min        =   0.0000000000000000E+00
(PID.TID 0000.0001) %MON trcstat_ptracer17_mean       =   0.0000000000000000E+00
(PID.TID 0000.0001) %MON trcstat_ptracer17_sd         =   0.0000000000000000E+00
(PID.TID 0000.0001) %MON trcstat_ptracer17_del2       =   0.0000000000000000E+00
(PID.TID 0000.0001) %MON trcstat_ptracer18_max        =   1.0000000000000000E+00
(PID.TID 0000.0001) %MON trcstat_ptracer18_min        =   0.0000000000000000E+00
(PID.TID 0000.0001) %MON trcstat_ptracer18_mean       =   1.4306151645207441E-02
(PID.TID 0000.0001) %MON trcstat_ptracer18_sd         =   1.1874967650613522E-01
(PID.TID 0000.0001) %MON trcstat_ptracer18_del2       =   0.0000000000000000E+00
(PID.TID 0000.0001) %MON trcstat_ptracer19_max        =   1.0000000000000000E+00
(PID.TID 0000.0001) %MON trcstat_ptracer19_min        =   0.0000000000000000E+00
(PID.TID 0000.0001) %MON trcstat_ptracer19_mean       =   1.4306151645207441E-02
(PID.TID 0000.0001) %MON trcstat_ptracer19_sd         =   1.1874967650613522E-01
(PID.TID 0000.0001) %MON trcstat_ptracer19_del2       =   0.0000000000000000E+00
(PID.TID 0000.0001) %MON trcstat_ptracer20_max        =   1.0000000000000000E+00
(PID.TID 0000.0001) %MON trcstat_ptracer20_min        =   0.0000000000000000E+00
(PID.TID 0000.0001) %MON trcstat_ptracer20_mean       =   1.4306151645207441E-02
(PID.TID 0000.0001) %MON trcstat_ptracer20_sd         =   1.1874967650613522E-01
(PID.TID 0000.0001) %MON trcstat_ptracer20_del2       =   0.0000000000000000E+00
(PID.TID 0000.0001) %MON trcstat_ptracer21_max        =   1.0000000000000000E+00
(PID.TID 0000.0001) %MON trcstat_ptracer21_min        =   0.0000000000000000E+00
(PID.TID 0000.0001) %MON trcstat_ptracer21_mean       =   1.4306151645207441E-02
(PID.TID 0000.0001) %MON trcstat_ptracer21_sd         =   1.1874967650613522E-01
(PID.TID 0000.0001) %MON trcstat_ptracer21_del2       =   0.0000000000000000E+00
(PID.TID 0000.0001) %MON trcstat_ptracer22_max        =   1.0000000000000000E+00
(PID.TID 0000.0001) %MON trcstat_ptracer22_min        =   0.0000000000000000E+00
(PID.TID 0000.0001) %MON trcstat_ptracer22_mean       =   1.4306151645207441E-02
(PID.TID 0000.0001) %MON trcstat_ptracer22_sd         =   1.1874967650613522E-01
(PID.TID 0000.0001) %MON trcstat_ptracer22_del2       =   0.0000000000000000E+00
(PID.TID 0000.0001) %MON trcstat_ptracer23_max        =   1.0000000000000000E+00
(PID.TID 0000.0001) %MON trcstat_ptracer23_min        =   0.0000000000000000E+00
(PID.TID 0000.0001) %MON trcstat_ptracer23_mean       =   1.4306151645207441E-02
(PID.TID 0000.0001) %MON trcstat_ptracer23_sd         =   1.1874967650613522E-01
(PID.TID 0000.0001) %MON trcstat_ptracer23_del2       =   0.0000000000000000E+00
(PID.TID 0000.0001) %MON trcstat_ptracer24_max        =   1.0000000000000000E+00
(PID.TID 0000.0001) %MON trcstat_ptracer24_min        =   0.0000000000000000E+00
(PID.TID 0000.0001) %MON trcstat_ptracer24_mean       =   1.4306151645207441E-02
(PID.TID 0000.0001) %MON trcstat_ptracer24_sd         =   1.1874967650613522E-01
(PID.TID 0000.0001) %MON trcstat_ptracer24_del2       =   0.0000000000000000E+00
(PID.TID 0000.0001) %MON trcstat_ptracer25_max        =   1.0000000000000000E+00
(PID.TID 0000.0001) %MON trcstat_ptracer25_min        =   0.0000000000000000E+00
(PID.TID 0000.0001) %MON trcstat_ptracer25_mean       =   1.4306151645207441E-02
(PID.TID 0000.0001) %MON trcstat_ptracer25_sd         =   1.1874967650613522E-01
(PID.TID 0000.0001) %MON trcstat_ptracer25_del2       =   0.0000000000000000E+00
(PID.TID 0000.0001) %MON trcstat_ptracer26_max        =   1.0000000000000000E+00
(PID.TID 0000.0001) %MON trcstat_ptracer26_min        =   0.0000000000000000E+00
(PID.TID 0000.0001) %MON trcstat_ptracer26_mean       =   1.4306151645207441E-02
(PID.TID 0000.0001) %MON trcstat_ptracer26_sd         =   1.1874967650613522E-01
(PID.TID 0000.0001) %MON trcstat_ptracer26_del2       =   0.0000000000000000E+00
(PID.TID 0000.0001) %MON trcstat_ptracer27_max        =   1.0000000000000000E+00
(PID.TID 0000.0001) %MON trcstat_ptracer27_min        =   0.0000000000000000E+00
(PID.TID 0000.0001) %MON trcstat_ptracer27_mean       =   1.4306151645207441E-02
(PID.TID 0000.0001) %MON trcstat_ptracer27_sd         =   1.1874967650613522E-01
(PID.TID 0000.0001) %MON trcstat_ptracer27_del2       =   0.0000000000000000E+00
(PID.TID 0000.0001) %MON trcstat_ptracer28_max        =   1.0000000000000000E+00
(PID.TID 0000.0001) %MON trcstat_ptracer28_min        =   0.0000000000000000E+00
(PID.TID 0000.0001) %MON trcstat_ptracer28_mean       =   1.4306151645207441E-02
(PID.TID 0000.0001) %MON trcstat_ptracer28_sd         =   1.1874967650613522E-01
(PID.TID 0000.0001) %MON trcstat_ptracer28_del2       =   0.0000000000000000E+00
(PID.TID 0000.0001) %MON trcstat_ptracer29_max        =   1.0000000000000000E+00
(PID.TID 0000.0001) %MON trcstat_ptracer29_min        =   0.0000000000000000E+00
(PID.TID 0000.0001) %MON trcstat_ptracer29_mean       =   1.4306151645207441E-02
(PID.TID 0000.0001) %MON trcstat_ptracer29_sd         =   1.1874967650613522E-01
(PID.TID 0000.0001) %MON trcstat_ptracer29_del2       =   0.0000000000000000E+00
(PID.TID 0000.0001) %MON trcstat_ptracer30_max        =   1.0000000000000000E+00
(PID.TID 0000.0001) %MON trcstat_ptracer30_min        =   0.0000000000000000E+00
(PID.TID 0000.0001) %MON trcstat_ptracer30_mean       =   1.4306151645207441E-02
(PID.TID 0000.0001) %MON trcstat_ptracer30_sd         =   1.1874967650613522E-01
(PID.TID 0000.0001) %MON trcstat_ptracer30_del2       =   0.0000000000000000E+00
(PID.TID 0000.0001) %MON trcstat_ptracer31_max        =   1.0000000000000000E+00
(PID.TID 0000.0001) %MON trcstat_ptracer31_min        =   0.0000000000000000E+00
(PID.TID 0000.0001) %MON trcstat_ptracer31_mean       =   1.4306151645207441E-02
(PID.TID 0000.0001) %MON trcstat_ptracer31_sd         =   1.1874967650613522E-01
(PID.TID 0000.0001) %MON trcstat_ptracer31_del2       =   0.0000000000000000E+00
(PID.TID 0000.0001) %MON trcstat_ptracer32_max        =   1.0000000000000000E+00
(PID.TID 0000.0001) %MON trcstat_ptracer32_min        =   0.0000000000000000E+00
(PID.TID 0000.0001) %MON trcstat_ptracer32_mean       =   1.4306151645207441E-02
(PID.TID 0000.0001) %MON trcstat_ptracer32_sd         =   1.1874967650613522E-01
(PID.TID 0000.0001) %MON trcstat_ptracer32_del2       =   0.0000000000000000E+00
(PID.TID 0000.0001) %MON trcstat_ptracer33_max        =   1.0000000000000000E+00
(PID.TID 0000.0001) %MON trcstat_ptracer33_min        =   0.0000000000000000E+00
(PID.TID 0000.0001) %MON trcstat_ptracer33_mean       =   1.4306151645207441E-02
(PID.TID 0000.0001) %MON trcstat_ptracer33_sd         =   1.1874967650613522E-01
(PID.TID 0000.0001) %MON trcstat_ptracer33_del2       =   0.0000000000000000E+00
(PID.TID 0000.0001) %MON trcstat_ptracer34_max        =   1.3333300000000001E-01
(PID.TID 0000.0001) %MON trcstat_ptracer34_min        =   0.0000000000000000E+00
(PID.TID 0000.0001) %MON trcstat_ptracer34_mean       =   1.9074821173104438E-03
(PID.TID 0000.0001) %MON trcstat_ptracer34_sd         =   1.5833250617592533E-02
(PID.TID 0000.0001) %MON trcstat_ptracer34_del2       =   0.0000000000000000E+00
(PID.TID 0000.0001) %MON trcstat_ptracer35_max        =   1.3333300000000001E-01
(PID.TID 0000.0001) %MON trcstat_ptracer35_min        =   0.0000000000000000E+00
(PID.TID 0000.0001) %MON trcstat_ptracer35_mean       =   1.9074821173104438E-03
(PID.TID 0000.0001) %MON trcstat_ptracer35_sd         =   1.5833250617592533E-02
(PID.TID 0000.0001) %MON trcstat_ptracer35_del2       =   0.0000000000000000E+00
(PID.TID 0000.0001) %MON trcstat_ptracer36_max        =   1.3333300000000001E-01
(PID.TID 0000.0001) %MON trcstat_ptracer36_min        =   0.0000000000000000E+00
(PID.TID 0000.0001) %MON trcstat_ptracer36_mean       =   1.9074821173104438E-03
(PID.TID 0000.0001) %MON trcstat_ptracer36_sd         =   1.5833250617592533E-02
(PID.TID 0000.0001) %MON trcstat_ptracer36_del2       =   0.0000000000000000E+00
(PID.TID 0000.0001) %MON trcstat_ptracer37_max        =   1.3333300000000001E-01
(PID.TID 0000.0001) %MON trcstat_ptracer37_min        =   0.0000000000000000E+00
(PID.TID 0000.0001) %MON trcstat_ptracer37_mean       =   1.9074821173104438E-03
(PID.TID 0000.0001) %MON trcstat_ptracer37_sd         =   1.5833250617592533E-02
(PID.TID 0000.0001) %MON trcstat_ptracer37_del2       =   0.0000000000000000E+00
(PID.TID 0000.0001) %MON trcstat_ptracer38_max        =   1.3333300000000001E-01
(PID.TID 0000.0001) %MON trcstat_ptracer38_min        =   0.0000000000000000E+00
(PID.TID 0000.0001) %MON trcstat_ptracer38_mean       =   1.9074821173104438E-03
(PID.TID 0000.0001) %MON trcstat_ptracer38_sd         =   1.5833250617592533E-02
(PID.TID 0000.0001) %MON trcstat_ptracer38_del2       =   0.0000000000000000E+00
(PID.TID 0000.0001) %MON trcstat_ptracer39_max        =   1.3333300000000001E-01
(PID.TID 0000.0001) %MON trcstat_ptracer39_min        =   0.0000000000000000E+00
(PID.TID 0000.0001) %MON trcstat_ptracer39_mean       =   1.9074821173104438E-03
(PID.TID 0000.0001) %MON trcstat_ptracer39_sd         =   1.5833250617592533E-02
(PID.TID 0000.0001) %MON trcstat_ptracer39_del2       =   0.0000000000000000E+00
(PID.TID 0000.0001) %MON trcstat_ptracer40_max        =   1.3333300000000001E-01
(PID.TID 0000.0001) %MON trcstat_ptracer40_min        =   0.0000000000000000E+00
(PID.TID 0000.0001) %MON trcstat_ptracer40_mean       =   1.9074821173104438E-03
(PID.TID 0000.0001) %MON trcstat_ptracer40_sd         =   1.5833250617592533E-02
(PID.TID 0000.0001) %MON trcstat_ptracer40_del2       =   0.0000000000000000E+00
(PID.TID 0000.0001) %MON trcstat_ptracer41_max        =   1.3333300000000001E-01
(PID.TID 0000.0001) %MON trcstat_ptracer41_min        =   0.0000000000000000E+00
(PID.TID 0000.0001) %MON trcstat_ptracer41_mean       =   1.9074821173104438E-03
(PID.TID 0000.0001) %MON trcstat_ptracer41_sd         =   1.5833250617592533E-02
(PID.TID 0000.0001) %MON trcstat_ptracer41_del2       =   0.0000000000000000E+00
(PID.TID 0000.0001) %MON trcstat_ptracer42_max        =   1.3333300000000001E-01
(PID.TID 0000.0001) %MON trcstat_ptracer42_min        =   0.0000000000000000E+00
(PID.TID 0000.0001) %MON trcstat_ptracer42_mean       =   1.9074821173104438E-03
(PID.TID 0000.0001) %MON trcstat_ptracer42_sd         =   1.5833250617592533E-02
(PID.TID 0000.0001) %MON trcstat_ptracer42_del2       =   0.0000000000000000E+00
(PID.TID 0000.0001) %MON trcstat_ptracer43_max        =   1.3333300000000001E-01
(PID.TID 0000.0001) %MON trcstat_ptracer43_min        =   0.0000000000000000E+00
(PID.TID 0000.0001) %MON trcstat_ptracer43_mean       =   1.9074821173104438E-03
(PID.TID 0000.0001) %MON trcstat_ptracer43_sd         =   1.5833250617592533E-02
(PID.TID 0000.0001) %MON trcstat_ptracer43_del2       =   0.0000000000000000E+00
(PID.TID 0000.0001) %MON trcstat_ptracer44_max        =   1.3333300000000001E-01
(PID.TID 0000.0001) %MON trcstat_ptracer44_min        =   0.0000000000000000E+00
(PID.TID 0000.0001) %MON trcstat_ptracer44_mean       =   1.9074821173104438E-03
(PID.TID 0000.0001) %MON trcstat_ptracer44_sd         =   1.5833250617592533E-02
(PID.TID 0000.0001) %MON trcstat_ptracer44_del2       =   0.0000000000000000E+00
(PID.TID 0000.0001) %MON trcstat_ptracer45_max        =   1.3333300000000001E-01
(PID.TID 0000.0001) %MON trcstat_ptracer45_min        =   0.0000000000000000E+00
(PID.TID 0000.0001) %MON trcstat_ptracer45_mean       =   1.9074821173104438E-03
(PID.TID 0000.0001) %MON trcstat_ptracer45_sd         =   1.5833250617592533E-02
(PID.TID 0000.0001) %MON trcstat_ptracer45_del2       =   0.0000000000000000E+00
(PID.TID 0000.0001) %MON trcstat_ptracer46_max        =   1.3333300000000001E-01
(PID.TID 0000.0001) %MON trcstat_ptracer46_min        =   0.0000000000000000E+00
(PID.TID 0000.0001) %MON trcstat_ptracer46_mean       =   1.9074821173104438E-03
(PID.TID 0000.0001) %MON trcstat_ptracer46_sd         =   1.5833250617592533E-02
(PID.TID 0000.0001) %MON trcstat_ptracer46_del2       =   0.0000000000000000E+00
(PID.TID 0000.0001) %MON trcstat_ptracer47_max        =   1.3333300000000001E-01
(PID.TID 0000.0001) %MON trcstat_ptracer47_min        =   0.0000000000000000E+00
(PID.TID 0000.0001) %MON trcstat_ptracer47_mean       =   1.9074821173104438E-03
(PID.TID 0000.0001) %MON trcstat_ptracer47_sd         =   1.5833250617592533E-02
(PID.TID 0000.0001) %MON trcstat_ptracer47_del2       =   0.0000000000000000E+00
(PID.TID 0000.0001) %MON trcstat_ptracer48_max        =   1.3333300000000001E-01
(PID.TID 0000.0001) %MON trcstat_ptracer48_min        =   0.0000000000000000E+00
(PID.TID 0000.0001) %MON trcstat_ptracer48_mean       =   1.9074821173104438E-03
(PID.TID 0000.0001) %MON trcstat_ptracer48_sd         =   1.5833250617592533E-02
(PID.TID 0000.0001) %MON trcstat_ptracer48_del2       =   0.0000000000000000E+00
(PID.TID 0000.0001) %MON trcstat_ptracer49_max        =   1.3333300000000001E-01
(PID.TID 0000.0001) %MON trcstat_ptracer49_min        =   0.0000000000000000E+00
(PID.TID 0000.0001) %MON trcstat_ptracer49_mean       =   1.9074821173104438E-03
(PID.TID 0000.0001) %MON trcstat_ptracer49_sd         =   1.5833250617592533E-02
(PID.TID 0000.0001) %MON trcstat_ptracer49_del2       =   0.0000000000000000E+00
(PID.TID 0000.0001) %MON trcstat_ptracer50_max        =   1.0000000000000001E-05
(PID.TID 0000.0001) %MON trcstat_ptracer50_min        =   0.0000000000000000E+00
(PID.TID 0000.0001) %MON trcstat_ptracer50_mean       =   1.4306151645207441E-07
(PID.TID 0000.0001) %MON trcstat_ptracer50_sd         =   1.1874967650613524E-06
(PID.TID 0000.0001) %MON trcstat_ptracer50_del2       =   0.0000000000000000E+00
(PID.TID 0000.0001) %MON trcstat_ptracer51_max        =   1.0000000000000001E-05
(PID.TID 0000.0001) %MON trcstat_ptracer51_min        =   0.0000000000000000E+00
(PID.TID 0000.0001) %MON trcstat_ptracer51_mean       =   1.4306151645207441E-07
(PID.TID 0000.0001) %MON trcstat_ptracer51_sd         =   1.1874967650613524E-06
(PID.TID 0000.0001) %MON trcstat_ptracer51_del2       =   0.0000000000000000E+00
(PID.TID 0000.0001) %MON trcstat_ptracer52_max        =   1.0000000000000001E-05
(PID.TID 0000.0001) %MON trcstat_ptracer52_min        =   0.0000000000000000E+00
(PID.TID 0000.0001) %MON trcstat_ptracer52_mean       =   1.4306151645207441E-07
(PID.TID 0000.0001) %MON trcstat_ptracer52_sd         =   1.1874967650613524E-06
(PID.TID 0000.0001) %MON trcstat_ptracer52_del2       =   0.0000000000000000E+00
(PID.TID 0000.0001) %MON trcstat_ptracer53_max        =   1.0000000000000001E-05
(PID.TID 0000.0001) %MON trcstat_ptracer53_min        =   0.0000000000000000E+00
(PID.TID 0000.0001) %MON trcstat_ptracer53_mean       =   1.4306151645207441E-07
(PID.TID 0000.0001) %MON trcstat_ptracer53_sd         =   1.1874967650613524E-06
(PID.TID 0000.0001) %MON trcstat_ptracer53_del2       =   0.0000000000000000E+00
(PID.TID 0000.0001) %MON trcstat_ptracer54_max        =   1.0000000000000001E-05
(PID.TID 0000.0001) %MON trcstat_ptracer54_min        =   0.0000000000000000E+00
(PID.TID 0000.0001) %MON trcstat_ptracer54_mean       =   1.4306151645207441E-07
(PID.TID 0000.0001) %MON trcstat_ptracer54_sd         =   1.1874967650613524E-06
(PID.TID 0000.0001) %MON trcstat_ptracer54_del2       =   0.0000000000000000E+00
(PID.TID 0000.0001) %MON trcstat_ptracer55_max        =   1.0000000000000001E-05
(PID.TID 0000.0001) %MON trcstat_ptracer55_min        =   0.0000000000000000E+00
(PID.TID 0000.0001) %MON trcstat_ptracer55_mean       =   1.4306151645207441E-07
(PID.TID 0000.0001) %MON trcstat_ptracer55_sd         =   1.1874967650613524E-06
(PID.TID 0000.0001) %MON trcstat_ptracer55_del2       =   0.0000000000000000E+00
(PID.TID 0000.0001) %MON trcstat_ptracer56_max        =   1.0000000000000001E-05
(PID.TID 0000.0001) %MON trcstat_ptracer56_min        =   0.0000000000000000E+00
(PID.TID 0000.0001) %MON trcstat_ptracer56_mean       =   1.4306151645207441E-07
(PID.TID 0000.0001) %MON trcstat_ptracer56_sd         =   1.1874967650613524E-06
(PID.TID 0000.0001) %MON trcstat_ptracer56_del2       =   0.0000000000000000E+00
(PID.TID 0000.0001) %MON trcstat_ptracer57_max        =   1.0000000000000001E-05
(PID.TID 0000.0001) %MON trcstat_ptracer57_min        =   0.0000000000000000E+00
(PID.TID 0000.0001) %MON trcstat_ptracer57_mean       =   1.4306151645207441E-07
(PID.TID 0000.0001) %MON trcstat_ptracer57_sd         =   1.1874967650613524E-06
(PID.TID 0000.0001) %MON trcstat_ptracer57_del2       =   0.0000000000000000E+00
(PID.TID 0000.0001) %MON trcstat_ptracer58_max        =   1.0000000000000001E-05
(PID.TID 0000.0001) %MON trcstat_ptracer58_min        =   0.0000000000000000E+00
(PID.TID 0000.0001) %MON trcstat_ptracer58_mean       =   1.4306151645207441E-07
(PID.TID 0000.0001) %MON trcstat_ptracer58_sd         =   1.1874967650613524E-06
(PID.TID 0000.0001) %MON trcstat_ptracer58_del2       =   0.0000000000000000E+00
(PID.TID 0000.0001) %MON trcstat_ptracer59_max        =   1.0000000000000001E-05
(PID.TID 0000.0001) %MON trcstat_ptracer59_min        =   0.0000000000000000E+00
(PID.TID 0000.0001) %MON trcstat_ptracer59_mean       =   1.4306151645207441E-07
(PID.TID 0000.0001) %MON trcstat_ptracer59_sd         =   1.1874967650613524E-06
(PID.TID 0000.0001) %MON trcstat_ptracer59_del2       =   0.0000000000000000E+00
(PID.TID 0000.0001) %MON trcstat_ptracer60_max        =   1.0000000000000001E-05
(PID.TID 0000.0001) %MON trcstat_ptracer60_min        =   0.0000000000000000E+00
(PID.TID 0000.0001) %MON trcstat_ptracer60_mean       =   1.4306151645207441E-07
(PID.TID 0000.0001) %MON trcstat_ptracer60_sd         =   1.1874967650613524E-06
(PID.TID 0000.0001) %MON trcstat_ptracer60_del2       =   0.0000000000000000E+00
(PID.TID 0000.0001) %MON trcstat_ptracer61_max        =   1.0000000000000001E-05
(PID.TID 0000.0001) %MON trcstat_ptracer61_min        =   0.0000000000000000E+00
(PID.TID 0000.0001) %MON trcstat_ptracer61_mean       =   1.4306151645207441E-07
(PID.TID 0000.0001) %MON trcstat_ptracer61_sd         =   1.1874967650613524E-06
(PID.TID 0000.0001) %MON trcstat_ptracer61_del2       =   0.0000000000000000E+00
(PID.TID 0000.0001) %MON trcstat_ptracer62_max        =   1.0000000000000001E-05
(PID.TID 0000.0001) %MON trcstat_ptracer62_min        =   0.0000000000000000E+00
(PID.TID 0000.0001) %MON trcstat_ptracer62_mean       =   1.4306151645207441E-07
(PID.TID 0000.0001) %MON trcstat_ptracer62_sd         =   1.1874967650613524E-06
(PID.TID 0000.0001) %MON trcstat_ptracer62_del2       =   0.0000000000000000E+00
(PID.TID 0000.0001) %MON trcstat_ptracer63_max        =   1.0000000000000001E-05
(PID.TID 0000.0001) %MON trcstat_ptracer63_min        =   0.0000000000000000E+00
(PID.TID 0000.0001) %MON trcstat_ptracer63_mean       =   1.4306151645207441E-07
(PID.TID 0000.0001) %MON trcstat_ptracer63_sd         =   1.1874967650613524E-06
(PID.TID 0000.0001) %MON trcstat_ptracer63_del2       =   0.0000000000000000E+00
(PID.TID 0000.0001) %MON trcstat_ptracer64_max        =   1.0000000000000001E-05
(PID.TID 0000.0001) %MON trcstat_ptracer64_min        =   0.0000000000000000E+00
(PID.TID 0000.0001) %MON trcstat_ptracer64_mean       =   1.4306151645207441E-07
(PID.TID 0000.0001) %MON trcstat_ptracer64_sd         =   1.1874967650613524E-06
(PID.TID 0000.0001) %MON trcstat_ptracer64_del2       =   0.0000000000000000E+00
(PID.TID 0000.0001) %MON trcstat_ptracer65_max        =   1.0000000000000001E-05
(PID.TID 0000.0001) %MON trcstat_ptracer65_min        =   0.0000000000000000E+00
(PID.TID 0000.0001) %MON trcstat_ptracer65_mean       =   1.4306151645207441E-07
(PID.TID 0000.0001) %MON trcstat_ptracer65_sd         =   1.1874967650613524E-06
(PID.TID 0000.0001) %MON trcstat_ptracer65_del2       =   0.0000000000000000E+00
(PID.TID 0000.0001) %MON trcstat_ptracer66_max        =   1.4999999999999999E-01
(PID.TID 0000.0001) %MON trcstat_ptracer66_min        =   0.0000000000000000E+00
(PID.TID 0000.0001) %MON trcstat_ptracer66_mean       =   2.1459227467811159E-03
(PID.TID 0000.0001) %MON trcstat_ptracer66_sd         =   1.7812451475920286E-02
(PID.TID 0000.0001) %MON trcstat_ptracer66_del2       =   0.0000000000000000E+00
(PID.TID 0000.0001) %MON trcstat_ptracer67_max        =   1.4999999999999999E-01
(PID.TID 0000.0001) %MON trcstat_ptracer67_min        =   0.0000000000000000E+00
(PID.TID 0000.0001) %MON trcstat_ptracer67_mean       =   2.1459227467811159E-03
(PID.TID 0000.0001) %MON trcstat_ptracer67_sd         =   1.7812451475920286E-02
(PID.TID 0000.0001) %MON trcstat_ptracer67_del2       =   0.0000000000000000E+00
(PID.TID 0000.0001) %MON trcstat_ptracer68_max        =   1.4999999999999999E-01
(PID.TID 0000.0001) %MON trcstat_ptracer68_min        =   0.0000000000000000E+00
(PID.TID 0000.0001) %MON trcstat_ptracer68_mean       =   2.1459227467811159E-03
(PID.TID 0000.0001) %MON trcstat_ptracer68_sd         =   1.7812451475920286E-02
(PID.TID 0000.0001) %MON trcstat_ptracer68_del2       =   0.0000000000000000E+00
(PID.TID 0000.0001) %MON trcstat_ptracer69_max        =   1.4999999999999999E-01
(PID.TID 0000.0001) %MON trcstat_ptracer69_min        =   0.0000000000000000E+00
(PID.TID 0000.0001) %MON trcstat_ptracer69_mean       =   2.1459227467811159E-03
(PID.TID 0000.0001) %MON trcstat_ptracer69_sd         =   1.7812451475920286E-02
(PID.TID 0000.0001) %MON trcstat_ptracer69_del2       =   0.0000000000000000E+00
(PID.TID 0000.0001) %MON trcstat_ptracer70_max        =   1.4999999999999999E-01
(PID.TID 0000.0001) %MON trcstat_ptracer70_min        =   0.0000000000000000E+00
(PID.TID 0000.0001) %MON trcstat_ptracer70_mean       =   2.1459227467811159E-03
(PID.TID 0000.0001) %MON trcstat_ptracer70_sd         =   1.7812451475920286E-02
(PID.TID 0000.0001) %MON trcstat_ptracer70_del2       =   0.0000000000000000E+00
(PID.TID 0000.0001) %MON trcstat_ptracer71_max        =   1.4999999999999999E-01
(PID.TID 0000.0001) %MON trcstat_ptracer71_min        =   0.0000000000000000E+00
(PID.TID 0000.0001) %MON trcstat_ptracer71_mean       =   2.1459227467811159E-03
(PID.TID 0000.0001) %MON trcstat_ptracer71_sd         =   1.7812451475920286E-02
(PID.TID 0000.0001) %MON trcstat_ptracer71_del2       =   0.0000000000000000E+00
(PID.TID 0000.0001) %MON trcstat_ptracer72_max        =   1.4999999999999999E-01
(PID.TID 0000.0001) %MON trcstat_ptracer72_min        =   0.0000000000000000E+00
(PID.TID 0000.0001) %MON trcstat_ptracer72_mean       =   2.1459227467811159E-03
(PID.TID 0000.0001) %MON trcstat_ptracer72_sd         =   1.7812451475920286E-02
(PID.TID 0000.0001) %MON trcstat_ptracer72_del2       =   0.0000000000000000E+00
(PID.TID 0000.0001) %MON trcstat_ptracer73_max        =   1.4999999999999999E-01
(PID.TID 0000.0001) %MON trcstat_ptracer73_min        =   0.0000000000000000E+00
(PID.TID 0000.0001) %MON trcstat_ptracer73_mean       =   2.1459227467811159E-03
(PID.TID 0000.0001) %MON trcstat_ptracer73_sd         =   1.7812451475920286E-02
(PID.TID 0000.0001) %MON trcstat_ptracer73_del2       =   0.0000000000000000E+00
(PID.TID 0000.0001) %MON trcstat_ptracer74_max        =   1.4999999999999999E-01
(PID.TID 0000.0001) %MON trcstat_ptracer74_min        =   0.0000000000000000E+00
(PID.TID 0000.0001) %MON trcstat_ptracer74_mean       =   2.1459227467811159E-03
(PID.TID 0000.0001) %MON trcstat_ptracer74_sd         =   1.7812451475920286E-02
(PID.TID 0000.0001) %MON trcstat_ptracer74_del2       =   0.0000000000000000E+00
(PID.TID 0000.0001) %MON trcstat_ptracer75_max        =   1.4999999999999999E-01
(PID.TID 0000.0001) %MON trcstat_ptracer75_min        =   0.0000000000000000E+00
(PID.TID 0000.0001) %MON trcstat_ptracer75_mean       =   2.1459227467811159E-03
(PID.TID 0000.0001) %MON trcstat_ptracer75_sd         =   1.7812451475920286E-02
(PID.TID 0000.0001) %MON trcstat_ptracer75_del2       =   0.0000000000000000E+00
(PID.TID 0000.0001) %MON trcstat_ptracer76_max        =   1.4999999999999999E-01
(PID.TID 0000.0001) %MON trcstat_ptracer76_min        =   0.0000000000000000E+00
(PID.TID 0000.0001) %MON trcstat_ptracer76_mean       =   2.1459227467811159E-03
(PID.TID 0000.0001) %MON trcstat_ptracer76_sd         =   1.7812451475920286E-02
(PID.TID 0000.0001) %MON trcstat_ptracer76_del2       =   0.0000000000000000E+00
(PID.TID 0000.0001) %MON trcstat_ptracer77_max        =   1.4999999999999999E-01
(PID.TID 0000.0001) %MON trcstat_ptracer77_min        =   0.0000000000000000E+00
(PID.TID 0000.0001) %MON trcstat_ptracer77_mean       =   2.1459227467811159E-03
(PID.TID 0000.0001) %MON trcstat_ptracer77_sd         =   1.7812451475920286E-02
(PID.TID 0000.0001) %MON trcstat_ptracer77_del2       =   0.0000000000000000E+00
(PID.TID 0000.0001) %MON trcstat_ptracer78_max        =   1.4999999999999999E-01
(PID.TID 0000.0001) %MON trcstat_ptracer78_min        =   0.0000000000000000E+00
(PID.TID 0000.0001) %MON trcstat_ptracer78_mean       =   2.1459227467811159E-03
(PID.TID 0000.0001) %MON trcstat_ptracer78_sd         =   1.7812451475920286E-02
(PID.TID 0000.0001) %MON trcstat_ptracer78_del2       =   0.0000000000000000E+00
(PID.TID 0000.0001) %MON trcstat_ptracer79_max        =   1.4999999999999999E-01
(PID.TID 0000.0001) %MON trcstat_ptracer79_min        =   0.0000000000000000E+00
(PID.TID 0000.0001) %MON trcstat_ptracer79_mean       =   2.1459227467811159E-03
(PID.TID 0000.0001) %MON trcstat_ptracer79_sd         =   1.7812451475920286E-02
(PID.TID 0000.0001) %MON trcstat_ptracer79_del2       =   0.0000000000000000E+00
(PID.TID 0000.0001) %MON trcstat_ptracer80_max        =   1.4999999999999999E-01
(PID.TID 0000.0001) %MON trcstat_ptracer80_min        =   0.0000000000000000E+00
(PID.TID 0000.0001) %MON trcstat_ptracer80_mean       =   2.1459227467811159E-03
(PID.TID 0000.0001) %MON trcstat_ptracer80_sd         =   1.7812451475920286E-02
(PID.TID 0000.0001) %MON trcstat_ptracer80_del2       =   0.0000000000000000E+00
(PID.TID 0000.0001) // =======================================================
(PID.TID 0000.0001) // End MONITOR ptracers field statistics
(PID.TID 0000.0001) // =======================================================
(PID.TID 0000.0001) // =======================================================
(PID.TID 0000.0001) // Begin MONITOR EXF statistics
(PID.TID 0000.0001) // =======================================================
(PID.TID 0000.0001) %MON exf_tsnumber                 =                     0
(PID.TID 0000.0001) %MON exf_time_sec                 =   0.0000000000000000E+00
(PID.TID 0000.0001) %MON exf_ustress_max              =   0.0000000000000000E+00
(PID.TID 0000.0001) %MON exf_ustress_min              =   0.0000000000000000E+00
(PID.TID 0000.0001) %MON exf_ustress_mean             =   0.0000000000000000E+00
(PID.TID 0000.0001) %MON exf_ustress_sd               =   0.0000000000000000E+00
(PID.TID 0000.0001) %MON exf_ustress_del2             =   0.0000000000000000E+00
(PID.TID 0000.0001) %MON exf_vstress_max              =   0.0000000000000000E+00
(PID.TID 0000.0001) %MON exf_vstress_min              =   0.0000000000000000E+00
(PID.TID 0000.0001) %MON exf_vstress_mean             =   0.0000000000000000E+00
(PID.TID 0000.0001) %MON exf_vstress_sd               =   0.0000000000000000E+00
(PID.TID 0000.0001) %MON exf_vstress_del2             =   0.0000000000000000E+00
(PID.TID 0000.0001) %MON exf_hflux_max                =   0.0000000000000000E+00
(PID.TID 0000.0001) %MON exf_hflux_min                =   0.0000000000000000E+00
(PID.TID 0000.0001) %MON exf_hflux_mean               =   0.0000000000000000E+00
(PID.TID 0000.0001) %MON exf_hflux_sd                 =   0.0000000000000000E+00
(PID.TID 0000.0001) %MON exf_hflux_del2               =   0.0000000000000000E+00
(PID.TID 0000.0001) %MON exf_sflux_max                =   0.0000000000000000E+00
(PID.TID 0000.0001) %MON exf_sflux_min                =   0.0000000000000000E+00
(PID.TID 0000.0001) %MON exf_sflux_mean               =   0.0000000000000000E+00
(PID.TID 0000.0001) %MON exf_sflux_sd                 =   0.0000000000000000E+00
(PID.TID 0000.0001) %MON exf_sflux_del2               =   0.0000000000000000E+00
(PID.TID 0000.0001) %MON exf_uwind_max                =   0.0000000000000000E+00
(PID.TID 0000.0001) %MON exf_uwind_min                =   0.0000000000000000E+00
(PID.TID 0000.0001) %MON exf_uwind_mean               =   0.0000000000000000E+00
(PID.TID 0000.0001) %MON exf_uwind_sd                 =   0.0000000000000000E+00
(PID.TID 0000.0001) %MON exf_uwind_del2               =   0.0000000000000000E+00
(PID.TID 0000.0001) %MON exf_vwind_max                =   0.0000000000000000E+00
(PID.TID 0000.0001) %MON exf_vwind_min                =   0.0000000000000000E+00
(PID.TID 0000.0001) %MON exf_vwind_mean               =   0.0000000000000000E+00
(PID.TID 0000.0001) %MON exf_vwind_sd                 =   0.0000000000000000E+00
(PID.TID 0000.0001) %MON exf_vwind_del2               =   0.0000000000000000E+00
(PID.TID 0000.0001) %MON exf_wspeed_max               =   0.0000000000000000E+00
(PID.TID 0000.0001) %MON exf_wspeed_min               =   0.0000000000000000E+00
(PID.TID 0000.0001) %MON exf_wspeed_mean              =   0.0000000000000000E+00
(PID.TID 0000.0001) %MON exf_wspeed_sd                =   0.0000000000000000E+00
(PID.TID 0000.0001) %MON exf_wspeed_del2              =   0.0000000000000000E+00
(PID.TID 0000.0001) %MON exf_evap_max                 =   0.0000000000000000E+00
(PID.TID 0000.0001) %MON exf_evap_min                 =   0.0000000000000000E+00
(PID.TID 0000.0001) %MON exf_evap_mean                =   0.0000000000000000E+00
(PID.TID 0000.0001) %MON exf_evap_sd                  =   0.0000000000000000E+00
(PID.TID 0000.0001) %MON exf_evap_del2                =   0.0000000000000000E+00
(PID.TID 0000.0001) // =======================================================
(PID.TID 0000.0001) // End MONITOR EXF statistics
(PID.TID 0000.0001) // =======================================================
 EXTERNAL_FIELDS_LOAD, it=         0 : Reading new data, i0,i1=   12    1 (prev=   12    0 )
(PID.TID 0000.0001)  MDS_READ_FIELD: opening global file: ../input/input/wind_u_mon.bin
(PID.TID 0000.0001)  MDS_READ_FIELD: opening global file: ../input/input/wind_u_mon.bin
(PID.TID 0000.0001)  MDS_READ_FIELD: opening global file: ../input/input/wind_v_mon.bin
(PID.TID 0000.0001)  MDS_READ_FIELD: opening global file: ../input/input/wind_v_mon.bin
(PID.TID 0000.0001)  MDS_READ_FIELD: opening global file: ../input/input/loc1_temp_monsurf.bin
(PID.TID 0000.0001)  MDS_READ_FIELD: opening global file: ../input/input/loc1_temp_monsurf.bin
(PID.TID 0000.0001)  MDS_READ_FIELD: opening global file: ../input/input/loc1_PAR_monsurf.bin
(PID.TID 0000.0001)  MDS_READ_FIELD: opening global file: ../input/input/loc1_PAR_monsurf.bin
(PID.TID 0000.0001)  MDS_READ_FIELD: opening global file: ../input/input/loc1_FeFlux_monsurf.bin
(PID.TID 0000.0001)  MDS_READ_FIELD: opening global file: ../input/input/loc1_FeFlux_monsurf.bin
(PID.TID 0000.0001) totgC   -9.7976835304372864E-09  -2.3780919247277598E-22
(PID.TID 0000.0001) totgN    1.0145422817825489E-09   2.4624951399040276E-23
(PID.TID 0000.0001) totgP    0.0000000000000000E+00   0.0000000000000000E+00
(PID.TID 0000.0001) totgFe  -2.8155938710014432E+01  -6.8340042083831877E-13
(PID.TID 0000.0001) totgSi   0.0000000000000000E+00   0.0000000000000000E+00
 fe   8.5475593067033150E-004
(PID.TID 0000.0001) totgC   -3.0821772420000374E-09  -7.4810548707862082E-23
(PID.TID 0000.0001) totgN   -2.7143087777403707E-10  -6.5881652183492811E-24
(PID.TID 0000.0001) totgP    0.0000000000000000E+00   0.0000000000000000E+00
(PID.TID 0000.0001) totgFe  -2.8145653642372203E+01  -6.8315078186774702E-13
(PID.TID 0000.0001) totgSi   0.0000000000000000E+00   0.0000000000000000E+00
 fe   8.5287495087274122E-004
(PID.TID 0000.0001) totgC    5.2183132094843881E-09   1.2665880119135835E-22
(PID.TID 0000.0001) totgN   -1.1030465429939795E-10  -2.6773125181517059E-24
(PID.TID 0000.0001) totgP    0.0000000000000000E+00   0.0000000000000000E+00
(PID.TID 0000.0001) totgFe  -2.8136015465806018E+01  -6.8291684422534469E-13
(PID.TID 0000.0001) totgSi   0.0000000000000000E+00   0.0000000000000000E+00
 fe   8.5108888567711483E-004
(PID.TID 0000.0001) // =======================================================
(PID.TID 0000.0001) // Begin MONITOR dynamic field statistics
(PID.TID 0000.0001) // =======================================================
(PID.TID 0000.0001) %MON time_tsnumber                =                     1
(PID.TID 0000.0001) %MON time_secondsf                =   1.0800000000000000E+04
(PID.TID 0000.0001) %MON dynstat_eta_max              =   0.0000000000000000E+00
(PID.TID 0000.0001) %MON dynstat_eta_min              =   0.0000000000000000E+00
(PID.TID 0000.0001) %MON dynstat_eta_mean             =   0.0000000000000000E+00
(PID.TID 0000.0001) %MON dynstat_eta_sd               =   0.0000000000000000E+00
(PID.TID 0000.0001) %MON dynstat_eta_del2             =   0.0000000000000000E+00
(PID.TID 0000.0001) %MON dynstat_uvel_max             =   0.0000000000000000E+00
(PID.TID 0000.0001) %MON dynstat_uvel_min             =   0.0000000000000000E+00
(PID.TID 0000.0001) %MON dynstat_uvel_mean            =   0.0000000000000000E+00
(PID.TID 0000.0001) %MON dynstat_uvel_sd              =   0.0000000000000000E+00
(PID.TID 0000.0001) %MON dynstat_uvel_del2            =   0.0000000000000000E+00
(PID.TID 0000.0001) %MON dynstat_vvel_max             =   0.0000000000000000E+00
(PID.TID 0000.0001) %MON dynstat_vvel_min             =   0.0000000000000000E+00
(PID.TID 0000.0001) %MON dynstat_vvel_mean            =   0.0000000000000000E+00
(PID.TID 0000.0001) %MON dynstat_vvel_sd              =   0.0000000000000000E+00
(PID.TID 0000.0001) %MON dynstat_vvel_del2            =   0.0000000000000000E+00
(PID.TID 0000.0001) %MON dynstat_wvel_max             =   0.0000000000000000E+00
(PID.TID 0000.0001) %MON dynstat_wvel_min             =   0.0000000000000000E+00
(PID.TID 0000.0001) %MON dynstat_wvel_mean            =   0.0000000000000000E+00
(PID.TID 0000.0001) %MON dynstat_wvel_sd              =   0.0000000000000000E+00
(PID.TID 0000.0001) %MON dynstat_wvel_del2            =   0.0000000000000000E+00
(PID.TID 0000.0001) %MON dynstat_theta_max            =   6.5044922881521119E+00
(PID.TID 0000.0001) %MON dynstat_theta_min            =  -9.3889137359886188E-01
(PID.TID 0000.0001) %MON dynstat_theta_mean           =   1.5606152272304019E-01
(PID.TID 0000.0001) %MON dynstat_theta_sd             =   2.0854479480469177E+00
(PID.TID 0000.0001) %MON dynstat_theta_del2           =   0.0000000000000000E+00
(PID.TID 0000.0001) %MON dynstat_salt_max             =   3.5000000000000000E+01
(PID.TID 0000.0001) %MON dynstat_salt_min             =   3.5000000000000000E+01
(PID.TID 0000.0001) %MON dynstat_salt_mean            =   3.5000000000000007E+01
(PID.TID 0000.0001) %MON dynstat_salt_sd              =   7.1054273576010019E-15
(PID.TID 0000.0001) %MON dynstat_salt_del2            =   0.0000000000000000E+00
(PID.TID 0000.0001) %MON dynstat_sst_max              =   6.5044922881521119E+00
(PID.TID 0000.0001) %MON dynstat_sst_min              =   6.5044922881521119E+00
(PID.TID 0000.0001) %MON dynstat_sst_mean             =   6.5044922881521110E+00
(PID.TID 0000.0001) %MON dynstat_sst_sd               =   8.8817841970012523E-16
(PID.TID 0000.0001) %MON dynstat_sst_del2             =   0.0000000000000000E+00
(PID.TID 0000.0001) %MON dynstat_sss_max              =   3.5000000000000000E+01
(PID.TID 0000.0001) %MON dynstat_sss_min              =   3.5000000000000000E+01
(PID.TID 0000.0001) %MON dynstat_sss_mean             =   3.5000000000000000E+01
(PID.TID 0000.0001) %MON dynstat_sss_sd               =   0.0000000000000000E+00
(PID.TID 0000.0001) %MON dynstat_sss_del2             =   0.0000000000000000E+00
(PID.TID 0000.0001) %MON forcing_qnet_max             =   0.0000000000000000E+00
(PID.TID 0000.0001) %MON forcing_qnet_min             =   0.0000000000000000E+00
(PID.TID 0000.0001) %MON forcing_qnet_mean            =   0.0000000000000000E+00
(PID.TID 0000.0001) %MON forcing_qnet_sd              =   0.0000000000000000E+00
(PID.TID 0000.0001) %MON forcing_qnet_del2            =   0.0000000000000000E+00
(PID.TID 0000.0001) %MON forcing_qsw_max              =   0.0000000000000000E+00
(PID.TID 0000.0001) %MON forcing_qsw_min              =   0.0000000000000000E+00
(PID.TID 0000.0001) %MON forcing_qsw_mean             =   0.0000000000000000E+00
(PID.TID 0000.0001) %MON forcing_qsw_sd               =   0.0000000000000000E+00
(PID.TID 0000.0001) %MON forcing_qsw_del2             =   0.0000000000000000E+00
(PID.TID 0000.0001) %MON forcing_empmr_max            =   0.0000000000000000E+00
(PID.TID 0000.0001) %MON forcing_empmr_min            =   0.0000000000000000E+00
(PID.TID 0000.0001) %MON forcing_empmr_mean           =   0.0000000000000000E+00
(PID.TID 0000.0001) %MON forcing_empmr_sd             =   0.0000000000000000E+00
(PID.TID 0000.0001) %MON forcing_empmr_del2           =   0.0000000000000000E+00
(PID.TID 0000.0001) %MON forcing_fu_max               =   2.2785000205039978E+00
(PID.TID 0000.0001) %MON forcing_fu_min               =   2.2785000205039978E+00
(PID.TID 0000.0001) %MON forcing_fu_mean              =   2.2785000205039978E+00
(PID.TID 0000.0001) %MON forcing_fu_sd                =   0.0000000000000000E+00
(PID.TID 0000.0001) %MON forcing_fu_del2              =   0.0000000000000000E+00
(PID.TID 0000.0001) %MON forcing_fv_max               =   1.1411664783954620E+00
(PID.TID 0000.0001) %MON forcing_fv_min               =   1.1411664783954620E+00
(PID.TID 0000.0001) %MON forcing_fv_mean              =   1.1411664783954620E+00
(PID.TID 0000.0001) %MON forcing_fv_sd                =   0.0000000000000000E+00
(PID.TID 0000.0001) %MON forcing_fv_del2              =   0.0000000000000000E+00
(PID.TID 0000.0001) %MON advcfl_uvel_max              =   0.0000000000000000E+00
(PID.TID 0000.0001) %MON advcfl_vvel_max              =   0.0000000000000000E+00
(PID.TID 0000.0001) %MON advcfl_wvel_max              =   0.0000000000000000E+00
(PID.TID 0000.0001) %MON advcfl_W_hf_max              =   0.0000000000000000E+00
(PID.TID 0000.0001) %MON pe_b_mean                    =   0.0000000000000000E+00
(PID.TID 0000.0001) %MON ke_max                       =   0.0000000000000000E+00
(PID.TID 0000.0001) %MON ke_mean                      =   0.0000000000000000E+00
(PID.TID 0000.0001) %MON ke_vol                       =   4.1199767883484609E+13
(PID.TID 0000.0001) %MON vort_r_min                   =   0.0000000000000000E+00
(PID.TID 0000.0001) %MON vort_r_max                   =   0.0000000000000000E+00
(PID.TID 0000.0001) %MON vort_a_mean                  =  -4.5067801836624727E-05
(PID.TID 0000.0001) %MON vort_a_sd                    =  -4.1359030627651384E-25
(PID.TID 0000.0001) %MON vort_p_mean                  =  -4.5067801836624727E-05
(PID.TID 0000.0001) %MON vort_p_sd                    =   0.0000000000000000E+00
(PID.TID 0000.0001) %MON surfExpan_theta_mean         =   0.0000000000000000E+00
(PID.TID 0000.0001) %MON surfExpan_salt_mean          =   0.0000000000000000E+00
(PID.TID 0000.0001) // =======================================================
(PID.TID 0000.0001) // End MONITOR dynamic field statistics
(PID.TID 0000.0001) // =======================================================
(PID.TID 0000.0001) // =======================================================
(PID.TID 0000.0001) // Begin MONITOR ptracer field statistics
(PID.TID 0000.0001) // =======================================================
(PID.TID 0000.0001) %MON trcstat_ptracer01_max        =   2.1623998992270181E+03
(PID.TID 0000.0001) %MON trcstat_ptracer01_min        =   2.0889455644554132E+03
(PID.TID 0000.0001) %MON trcstat_ptracer01_mean       =   2.1557283498653678E+03
(PID.TID 0000.0001) %MON trcstat_ptracer01_sd         =   1.1576383470301309E+01
(PID.TID 0000.0001) %MON trcstat_ptracer01_del2       =   0.0000000000000000E+00
(PID.TID 0000.0001) %MON trcstat_ptracer02_max        =   1.6952772051858486E-03
(PID.TID 0000.0001) %MON trcstat_ptracer02_min        =   5.9811021671841599E-12
(PID.TID 0000.0001) %MON trcstat_ptracer02_mean       =   3.0186900802569477E-04
(PID.TID 0000.0001) %MON trcstat_ptracer02_sd         =   4.1996964336106653E-04
(PID.TID 0000.0001) %MON trcstat_ptracer02_del2       =   0.0000000000000000E+00
(PID.TID 0000.0001) %MON trcstat_ptracer03_max        =   3.7817310758028536E-02
(PID.TID 0000.0001) %MON trcstat_ptracer03_min        =   2.9766930430658432E-13
(PID.TID 0000.0001) %MON trcstat_ptracer03_mean       =   7.4360000452113493E-03
(PID.TID 0000.0001) %MON trcstat_ptracer03_sd         =   1.0153910142462559E-02
(PID.TID 0000.0001) %MON trcstat_ptracer03_del2       =   0.0000000000000000E+00
(PID.TID 0000.0001) %MON trcstat_ptracer04_max        =   1.5341574218869177E+01
(PID.TID 0000.0001) %MON trcstat_ptracer04_min        =   1.1742273078225463E+01
(PID.TID 0000.0001) %MON trcstat_ptracer04_mean       =   1.4469787923256819E+01
(PID.TID 0000.0001) %MON trcstat_ptracer04_sd         =   9.2515463616917226E-01
(PID.TID 0000.0001) %MON trcstat_ptracer04_del2       =   0.0000000000000000E+00
(PID.TID 0000.0001) %MON trcstat_ptracer05_max        =   0.0000000000000000E+00
(PID.TID 0000.0001) %MON trcstat_ptracer05_min        =   0.0000000000000000E+00
(PID.TID 0000.0001) %MON trcstat_ptracer05_mean       =   0.0000000000000000E+00
(PID.TID 0000.0001) %MON trcstat_ptracer05_sd         =   0.0000000000000000E+00
(PID.TID 0000.0001) %MON trcstat_ptracer05_del2       =   0.0000000000000000E+00
(PID.TID 0000.0001) %MON trcstat_ptracer06_max        =   0.0000000000000000E+00
(PID.TID 0000.0001) %MON trcstat_ptracer06_min        =   0.0000000000000000E+00
(PID.TID 0000.0001) %MON trcstat_ptracer06_mean       =   0.0000000000000000E+00
(PID.TID 0000.0001) %MON trcstat_ptracer06_sd         =   0.0000000000000000E+00
(PID.TID 0000.0001) %MON trcstat_ptracer06_del2       =   0.0000000000000000E+00
(PID.TID 0000.0001) %MON trcstat_ptracer07_max        =   9.1627624673918274E-04
(PID.TID 0000.0001) %MON trcstat_ptracer07_min        =   5.9696099753159385E-14
(PID.TID 0000.0001) %MON trcstat_ptracer07_mean       =   5.7971376259285544E-04
(PID.TID 0000.0001) %MON trcstat_ptracer07_sd         =   3.7864515852312691E-04
(PID.TID 0000.0001) %MON trcstat_ptracer07_del2       =   0.0000000000000000E+00
(PID.TID 0000.0001) %MON trcstat_ptracer08_max        =   5.3367603060721225E-01
(PID.TID 0000.0001) %MON trcstat_ptracer08_min        =   3.8977097522064659-121
(PID.TID 0000.0001) %MON trcstat_ptracer08_mean       =   7.6717684554300147E-03
(PID.TID 0000.0001) %MON trcstat_ptracer08_sd         =   6.2848001305886275E-02
(PID.TID 0000.0001) %MON trcstat_ptracer08_del2       =   0.0000000000000000E+00
(PID.TID 0000.0001) %MON trcstat_ptracer09_max        =   3.4349609148538318E-01
(PID.TID 0000.0001) %MON trcstat_ptracer09_min        =   1.3687260131070274E-47
(PID.TID 0000.0001) %MON trcstat_ptracer09_mean       =   3.4051453677053617E-02
(PID.TID 0000.0001) %MON trcstat_ptracer09_sd         =   8.6865299520679978E-02
(PID.TID 0000.0001) %MON trcstat_ptracer09_del2       =   0.0000000000000000E+00
(PID.TID 0000.0001) %MON trcstat_ptracer10_max        =   0.0000000000000000E+00
(PID.TID 0000.0001) %MON trcstat_ptracer10_min        =   0.0000000000000000E+00
(PID.TID 0000.0001) %MON trcstat_ptracer10_mean       =   0.0000000000000000E+00
(PID.TID 0000.0001) %MON trcstat_ptracer10_sd         =   0.0000000000000000E+00
(PID.TID 0000.0001) %MON trcstat_ptracer10_del2       =   0.0000000000000000E+00
(PID.TID 0000.0001) %MON trcstat_ptracer11_max        =   1.9509887105244232E-05
(PID.TID 0000.0001) %MON trcstat_ptracer11_min        =   8.5545376668032645E-52
(PID.TID 0000.0001) %MON trcstat_ptracer11_mean       =   2.1000643113062061E-06
(PID.TID 0000.0001) %MON trcstat_ptracer11_sd         =   5.3333030272242591E-06
(PID.TID 0000.0001) %MON trcstat_ptracer11_del2       =   0.0000000000000000E+00
(PID.TID 0000.0001) %MON trcstat_ptracer12_max        =   3.5953522757532858E-01
(PID.TID 0000.0001) %MON trcstat_ptracer12_min        =   2.3711392820873103-118
(PID.TID 0000.0001) %MON trcstat_ptracer12_mean       =   5.1785313903312830E-03
(PID.TID 0000.0001) %MON trcstat_ptracer12_sd         =   4.2103249185430035E-02
(PID.TID 0000.0001) %MON trcstat_ptracer12_del2       =   0.0000000000000000E+00
(PID.TID 0000.0001) %MON trcstat_ptracer13_max        =   5.6690534954014229E-02
(PID.TID 0000.0001) %MON trcstat_ptracer13_min        =   3.0485635784248230E-08
(PID.TID 0000.0001) %MON trcstat_ptracer13_mean       =   1.5584917402728686E-02
(PID.TID 0000.0001) %MON trcstat_ptracer13_sd         =   1.2086164010814250E-02
(PID.TID 0000.0001) %MON trcstat_ptracer13_del2       =   0.0000000000000000E+00
(PID.TID 0000.0001) %MON trcstat_ptracer14_max        =   0.0000000000000000E+00
(PID.TID 0000.0001) %MON trcstat_ptracer14_min        =   0.0000000000000000E+00
(PID.TID 0000.0001) %MON trcstat_ptracer14_mean       =   0.0000000000000000E+00
(PID.TID 0000.0001) %MON trcstat_ptracer14_sd         =   0.0000000000000000E+00
(PID.TID 0000.0001) %MON trcstat_ptracer14_del2       =   0.0000000000000000E+00
(PID.TID 0000.0001) %MON trcstat_ptracer15_max        =   0.0000000000000000E+00
(PID.TID 0000.0001) %MON trcstat_ptracer15_min        =   0.0000000000000000E+00
(PID.TID 0000.0001) %MON trcstat_ptracer15_mean       =   0.0000000000000000E+00
(PID.TID 0000.0001) %MON trcstat_ptracer15_sd         =   0.0000000000000000E+00
(PID.TID 0000.0001) %MON trcstat_ptracer15_del2       =   0.0000000000000000E+00
(PID.TID 0000.0001) %MON trcstat_ptracer16_max        =   2.2808979288423600E-06
(PID.TID 0000.0001) %MON trcstat_ptracer16_min        =   1.9053520518545479E-12
(PID.TID 0000.0001) %MON trcstat_ptracer16_mean       =   9.5586703951339133E-07
(PID.TID 0000.0001) %MON trcstat_ptracer16_sd         =   7.0912413978345361E-07
(PID.TID 0000.0001) %MON trcstat_ptracer16_del2       =   0.0000000000000000E+00
(PID.TID 0000.0001) %MON trcstat_ptracer17_max        =   0.0000000000000000E+00
(PID.TID 0000.0001) %MON trcstat_ptracer17_min        =   0.0000000000000000E+00
(PID.TID 0000.0001) %MON trcstat_ptracer17_mean       =   0.0000000000000000E+00
(PID.TID 0000.0001) %MON trcstat_ptracer17_sd         =   0.0000000000000000E+00
(PID.TID 0000.0001) %MON trcstat_ptracer17_del2       =   0.0000000000000000E+00
(PID.TID 0000.0001) %MON trcstat_ptracer18_max        =   8.2582894878605806E-01
(PID.TID 0000.0001) %MON trcstat_ptracer18_min        =   6.7048551134631823-120
(PID.TID 0000.0001) %MON trcstat_ptracer18_mean       =   1.1973950081878770E-02
(PID.TID 0000.0001) %MON trcstat_ptracer18_sd         =   9.7135393732008857E-02
(PID.TID 0000.0001) %MON trcstat_ptracer18_del2       =   0.0000000000000000E+00
(PID.TID 0000.0001) %MON trcstat_ptracer19_max        =   8.4834572728140578E-01
(PID.TID 0000.0001) %MON trcstat_ptracer19_min        =   7.1479370760934754-120
(PID.TID 0000.0001) %MON trcstat_ptracer19_mean       =   1.2303713516013079E-02
(PID.TID 0000.0001) %MON trcstat_ptracer19_sd         =   9.9805882844738930E-02
(PID.TID 0000.0001) %MON trcstat_ptracer19_del2       =   0.0000000000000000E+00
(PID.TID 0000.0001) %MON trcstat_ptracer20_max        =   8.6637258393543859E-01
(PID.TID 0000.0001) %MON trcstat_ptracer20_min        =   7.8965388163943831-120
(PID.TID 0000.0001) %MON trcstat_ptracer20_mean       =   1.2567073465400794E-02
(PID.TID 0000.0001) %MON trcstat_ptracer20_sd         =   1.0193823296191819E-01
(PID.TID 0000.0001) %MON trcstat_ptracer20_del2       =   0.0000000000000000E+00
(PID.TID 0000.0001) %MON trcstat_ptracer21_max        =   8.8048390314587333E-01
(PID.TID 0000.0001) %MON trcstat_ptracer21_min        =   9.2949158907717784-120
(PID.TID 0000.0001) %MON trcstat_ptracer21_mean       =   1.2774709302640871E-02
(PID.TID 0000.0001) %MON trcstat_ptracer21_sd         =   1.0361874558603730E-01
(PID.TID 0000.0001) %MON trcstat_ptracer21_del2       =   0.0000000000000000E+00
(PID.TID 0000.0001) %MON trcstat_ptracer22_max        =   8.9149177627373899E-01
(PID.TID 0000.0001) %MON trcstat_ptracer22_min        =   1.2069074285380734-119
(PID.TID 0000.0001) %MON trcstat_ptracer22_mean       =   1.2937262128385927E-02
(PID.TID 0000.0001) %MON trcstat_ptracer22_sd         =   1.0493360687612810E-01
(PID.TID 0000.0001) %MON trcstat_ptracer22_del2       =   0.0000000000000000E+00
(PID.TID 0000.0001) %MON trcstat_ptracer23_max        =   9.0004964435036960E-01
(PID.TID 0000.0001) %MON trcstat_ptracer23_min        =   1.7774560427302893-119
(PID.TID 0000.0001) %MON trcstat_ptracer23_mean       =   1.3063753464472756E-02
(PID.TID 0000.0001) %MON trcstat_ptracer23_sd         =   1.0595576781261141E-01
(PID.TID 0000.0001) %MON trcstat_ptracer23_del2       =   0.0000000000000000E+00
(PID.TID 0000.0001) %MON trcstat_ptracer24_max        =   9.0653247840047335E-01
(PID.TID 0000.0001) %MON trcstat_ptracer24_min        =   2.9782572428723793-119
(PID.TID 0000.0001) %MON trcstat_ptracer24_mean       =   1.3161164505619058E-02
(PID.TID 0000.0001) %MON trcstat_ptracer24_sd         =   1.0674144333378208E-01
(PID.TID 0000.0001) %MON trcstat_ptracer24_del2       =   0.0000000000000000E+00
(PID.TID 0000.0001) %MON trcstat_ptracer25_max        =   9.1140024542596842E-01
(PID.TID 0000.0001) %MON trcstat_ptracer25_min        =   5.5462136072267160-119
(PID.TID 0000.0001) %MON trcstat_ptracer25_mean       =   1.3235705535630407E-02
(PID.TID 0000.0001) %MON trcstat_ptracer25_sd         =   1.0734069834634521E-01
(PID.TID 0000.0001) %MON trcstat_ptracer25_del2       =   0.0000000000000000E+00
(PID.TID 0000.0001) %MON trcstat_ptracer26_max        =   9.1496590369443265E-01
(PID.TID 0000.0001) %MON trcstat_ptracer26_min        =   1.1102746905538163-118
(PID.TID 0000.0001) %MON trcstat_ptracer26_mean       =   1.3292208740532880E-02
(PID.TID 0000.0001) %MON trcstat_ptracer26_sd         =   1.0779230147075400E-01
(PID.TID 0000.0001) %MON trcstat_ptracer26_del2       =   0.0000000000000000E+00
(PID.TID 0000.0001) %MON trcstat_ptracer27_max        =   9.1911417585373090E-01
(PID.TID 0000.0001) %MON trcstat_ptracer27_min        =   4.9901138800798898-118
(PID.TID 0000.0001) %MON trcstat_ptracer27_mean       =   1.3365317453837303E-02
(PID.TID 0000.0001) %MON trcstat_ptracer27_sd         =   1.0836571515991056E-01
(PID.TID 0000.0001) %MON trcstat_ptracer27_del2       =   0.0000000000000000E+00
(PID.TID 0000.0001) %MON trcstat_ptracer28_max        =   9.1844834854883750E-01
(PID.TID 0000.0001) %MON trcstat_ptracer28_min        =   1.0883389848921291-117
(PID.TID 0000.0001) %MON trcstat_ptracer28_mean       =   1.3365348189873161E-02
(PID.TID 0000.0001) %MON trcstat_ptracer28_sd         =   1.0835168087318664E-01
(PID.TID 0000.0001) %MON trcstat_ptracer28_del2       =   0.0000000000000000E+00
(PID.TID 0000.0001) %MON trcstat_ptracer29_max        =   9.1807309979244267E-01
(PID.TID 0000.0001) %MON trcstat_ptracer29_min        =   2.3962146213582891-117
(PID.TID 0000.0001) %MON trcstat_ptracer29_mean       =   1.3365385722070185E-02
(PID.TID 0000.0001) %MON trcstat_ptracer29_sd         =   1.0833329581788068E-01
(PID.TID 0000.0001) %MON trcstat_ptracer29_del2       =   0.0000000000000000E+00
(PID.TID 0000.0001) %MON trcstat_ptracer30_max        =   9.1807076610471128E-01
(PID.TID 0000.0001) %MON trcstat_ptracer30_min        =   5.3080404283387552-117
(PID.TID 0000.0001) %MON trcstat_ptracer30_mean       =   1.3365439640745276E-02
(PID.TID 0000.0001) %MON trcstat_ptracer30_sd         =   1.0830929222434489E-01
(PID.TID 0000.0001) %MON trcstat_ptracer30_del2       =   0.0000000000000000E+00
(PID.TID 0000.0001) %MON trcstat_ptracer31_max        =   9.1806646969880878E-01
(PID.TID 0000.0001) %MON trcstat_ptracer31_min        =   1.1806900466674106-116
(PID.TID 0000.0001) %MON trcstat_ptracer31_mean       =   1.3365514980275007E-02
(PID.TID 0000.0001) %MON trcstat_ptracer31_sd         =   1.0827796018724560E-01
(PID.TID 0000.0001) %MON trcstat_ptracer31_del2       =   0.0000000000000000E+00
(PID.TID 0000.0001) %MON trcstat_ptracer32_max        =   9.1805855700338057E-01
(PID.TID 0000.0001) %MON trcstat_ptracer32_min        =   2.6339228812796894-116
(PID.TID 0000.0001) %MON trcstat_ptracer32_mean       =   1.3365618222628757E-02
(PID.TID 0000.0001) %MON trcstat_ptracer32_sd         =   1.0823708257265427E-01
(PID.TID 0000.0001) %MON trcstat_ptracer32_del2       =   0.0000000000000000E+00
(PID.TID 0000.0001) %MON trcstat_ptracer33_max        =   1.0685376794523287E+00
(PID.TID 0000.0001) %MON trcstat_ptracer33_min        =   6.7113170297150685-120
(PID.TID 0000.0001) %MON trcstat_ptracer33_mean       =   1.5513865965371321E-02
(PID.TID 0000.0001) %MON trcstat_ptracer33_sd         =   1.2602233214353431E-01
(PID.TID 0000.0001) %MON trcstat_ptracer33_del2       =   0.0000000000000000E+00
(PID.TID 0000.0001) %MON trcstat_ptracer34_max        =   1.6500256573494118E-01
(PID.TID 0000.0001) %MON trcstat_ptracer34_min        =   1.1381529070817136-120
(PID.TID 0000.0001) %MON trcstat_ptracer34_mean       =   2.3999510510294988E-03
(PID.TID 0000.0001) %MON trcstat_ptracer34_sd         =   1.9462857044869792E-02
(PID.TID 0000.0001) %MON trcstat_ptracer34_del2       =   0.0000000000000000E+00
(PID.TID 0000.0001) %MON trcstat_ptracer35_max        =   1.5486888989672384E-01
(PID.TID 0000.0001) %MON trcstat_ptracer35_min        =   1.1428637397353656-120
(PID.TID 0000.0001) %MON trcstat_ptracer35_mean       =   2.2526638896185184E-03
(PID.TID 0000.0001) %MON trcstat_ptracer35_sd         =   1.8268942263661360E-02
(PID.TID 0000.0001) %MON trcstat_ptracer35_del2       =   0.0000000000000000E+00
(PID.TID 0000.0001) %MON trcstat_ptracer36_max        =   1.4679269946876022E-01
(PID.TID 0000.0001) %MON trcstat_ptracer36_min        =   1.1994187218561083-120
(PID.TID 0000.0001) %MON trcstat_ptracer36_mean       =   2.1353113921219378E-03
(PID.TID 0000.0001) %MON trcstat_ptracer36_sd         =   1.7317617692689573E-02
(PID.TID 0000.0001) %MON trcstat_ptracer36_del2       =   0.0000000000000000E+00
(PID.TID 0000.0001) %MON trcstat_ptracer37_max        =   1.4041695929738221E-01
(PID.TID 0000.0001) %MON trcstat_ptracer37_min        =   1.3517424368304950-120
(PID.TID 0000.0001) %MON trcstat_ptracer37_mean       =   2.0427449520854899E-03
(PID.TID 0000.0001) %MON trcstat_ptracer37_sd         =   1.6567107696777172E-02
(PID.TID 0000.0001) %MON trcstat_ptracer37_del2       =   0.0000000000000000E+00
(PID.TID 0000.0001) %MON trcstat_ptracer38_max        =   1.3542402028727554E-01
(PID.TID 0000.0001) %MON trcstat_ptracer38_min        =   1.6949541282807111-120
(PID.TID 0000.0001) %MON trcstat_ptracer38_mean       =   1.9703379836657959E-03
(PID.TID 0000.0001) %MON trcstat_ptracer38_sd         =   1.5979893471258406E-02
(PID.TID 0000.0001) %MON trcstat_ptracer38_del2       =   0.0000000000000000E+00
(PID.TID 0000.0001) %MON trcstat_ptracer39_max        =   1.3154001568659049E-01
(PID.TID 0000.0001) %MON trcstat_ptracer39_min        =   2.4349971960072068-120
(PID.TID 0000.0001) %MON trcstat_ptracer39_mean       =   1.9141181153831254E-03
(PID.TID 0000.0001) %MON trcstat_ptracer39_sd         =   1.5523764966521142E-02
(PID.TID 0000.0001) %MON trcstat_ptracer39_del2       =   0.0000000000000000E+00
(PID.TID 0000.0001) %MON trcstat_ptracer40_max        =   1.2853596364553499E-01
(PID.TID 0000.0001) %MON trcstat_ptracer40_min        =   4.0200233183658806-120
(PID.TID 0000.0001) %MON trcstat_ptracer40_mean       =   1.8707806529637857E-03
(PID.TID 0000.0001) %MON trcstat_ptracer40_sd         =   1.5171920537150874E-02
(PID.TID 0000.0001) %MON trcstat_ptracer40_del2       =   0.0000000000000000E+00
(PID.TID 0000.0001) %MON trcstat_ptracer41_max        =   1.2622590389547164E-01
(PID.TID 0000.0001) %MON trcstat_ptracer41_min        =   7.4312173271049452-120
(PID.TID 0000.0001) %MON trcstat_ptracer41_mean       =   1.8376385778672223E-03
(PID.TID 0000.0001) %MON trcstat_ptracer41_sd         =   1.4902557024433299E-02
(PID.TID 0000.0001) %MON trcstat_ptracer41_del2       =   0.0000000000000000E+00
(PID.TID 0000.0001) %MON trcstat_ptracer42_max        =   1.2448434339951016E-01
(PID.TID 0000.0001) %MON trcstat_ptracer42_min        =   1.4828923201590957-119
(PID.TID 0000.0001) %MON trcstat_ptracer42_mean       =   1.8125324661804915E-03
(PID.TID 0000.0001) %MON trcstat_ptracer42_sd         =   1.4698133810465072E-02
(PID.TID 0000.0001) %MON trcstat_ptracer42_del2       =   0.0000000000000000E+00
(PID.TID 0000.0001) %MON trcstat_ptracer43_max        =   1.2225869958516038E-01
(PID.TID 0000.0001) %MON trcstat_ptracer43_min        =   6.6534685397269241-119
(PID.TID 0000.0001) %MON trcstat_ptracer43_mean       =   1.7801435153772338E-03
(PID.TID 0000.0001) %MON trcstat_ptracer43_sd         =   1.4432918367775801E-02
(PID.TID 0000.0001) %MON trcstat_ptracer43_del2       =   0.0000000000000000E+00
(PID.TID 0000.0001) %MON trcstat_ptracer44_max        =   1.2225863714523685E-01
(PID.TID 0000.0001) %MON trcstat_ptracer44_min        =   1.4511150187262233-118
(PID.TID 0000.0001) %MON trcstat_ptracer44_mean       =   1.7801474773057322E-03
(PID.TID 0000.0001) %MON trcstat_ptracer44_sd         =   1.4431051757685611E-02
(PID.TID 0000.0001) %MON trcstat_ptracer44_del2       =   0.0000000000000000E+00
(PID.TID 0000.0001) %MON trcstat_ptracer45_max        =   1.2225848867152046E-01
(PID.TID 0000.0001) %MON trcstat_ptracer45_min        =   3.1949448410956495-118
(PID.TID 0000.0001) %MON trcstat_ptracer45_mean       =   1.7801558348380573E-03
(PID.TID 0000.0001) %MON trcstat_ptracer45_sd         =   1.4428635897344675E-02
(PID.TID 0000.0001) %MON trcstat_ptracer45_del2       =   0.0000000000000000E+00
(PID.TID 0000.0001) %MON trcstat_ptracer46_max        =   1.2225818010261173E-01
(PID.TID 0000.0001) %MON trcstat_ptracer46_min        =   7.0773695443169162-118
(PID.TID 0000.0001) %MON trcstat_ptracer46_mean       =   1.7801667206249292E-03
(PID.TID 0000.0001) %MON trcstat_ptracer46_sd         =   1.4425476032589972E-02
(PID.TID 0000.0001) %MON trcstat_ptracer46_del2       =   0.0000000000000000E+00
(PID.TID 0000.0001) %MON trcstat_ptracer47_max        =   1.2225758053023594E-01
(PID.TID 0000.0001) %MON trcstat_ptracer47_min        =   1.5742494599230589-117
(PID.TID 0000.0001) %MON trcstat_ptracer47_mean       =   1.7801808813654235E-03
(PID.TID 0000.0001) %MON trcstat_ptracer47_sd         =   1.4421345486431803E-02
(PID.TID 0000.0001) %MON trcstat_ptracer47_del2       =   0.0000000000000000E+00
(PID.TID 0000.0001) %MON trcstat_ptracer48_max        =   1.2225646039693593E-01
(PID.TID 0000.0001) %MON trcstat_ptracer48_min        =   3.5118883952966513-117
(PID.TID 0000.0001) %MON trcstat_ptracer48_mean       =   1.7801992690286413E-03
(PID.TID 0000.0001) %MON trcstat_ptracer48_sd         =   1.4415950252342703E-02
(PID.TID 0000.0001) %MON trcstat_ptracer48_del2       =   0.0000000000000000E+00
(PID.TID 0000.0001) %MON trcstat_ptracer49_max        =   1.4875257484475737E-01
(PID.TID 0000.0001) %MON trcstat_ptracer49_min        =   8.9484003352299959-121
(PID.TID 0000.0001) %MON trcstat_ptracer49_mean       =   2.1593707550111568E-03
(PID.TID 0000.0001) %MON trcstat_ptracer49_sd         =   1.7544419658426905E-02
(PID.TID 0000.0001) %MON trcstat_ptracer49_del2       =   0.0000000000000000E+00
(PID.TID 0000.0001) %MON trcstat_ptracer50_max        =   1.0384624620670315E-05
(PID.TID 0000.0001) %MON trcstat_ptracer50_min        =   7.1410412460934245-125
(PID.TID 0000.0001) %MON trcstat_ptracer50_mean       =   1.5103643776025455E-07
(PID.TID 0000.0001) %MON trcstat_ptracer50_sd         =   1.2251197605820521E-06
(PID.TID 0000.0001) %MON trcstat_ptracer50_del2       =   0.0000000000000000E+00
(PID.TID 0000.0001) %MON trcstat_ptracer51_max        =   1.0178653259276088E-05
(PID.TID 0000.0001) %MON trcstat_ptracer51_min        =   7.4883248449429261-125
(PID.TID 0000.0001) %MON trcstat_ptracer51_mean       =   1.4805273125367362E-07
(PID.TID 0000.0001) %MON trcstat_ptracer51_sd         =   1.2008931166285470E-06
(PID.TID 0000.0001) %MON trcstat_ptracer51_del2       =   0.0000000000000000E+00
(PID.TID 0000.0001) %MON trcstat_ptracer52_max        =   1.0003464799679287E-05
(PID.TID 0000.0001) %MON trcstat_ptracer52_min        =   8.1612064433948316-125
(PID.TID 0000.0001) %MON trcstat_ptracer52_mean       =   1.4551772406259467E-07
(PID.TID 0000.0001) %MON trcstat_ptracer52_sd         =   1.1803062492510123E-06
(PID.TID 0000.0001) %MON trcstat_ptracer52_del2       =   0.0000000000000000E+00
(PID.TID 0000.0001) %MON trcstat_ptracer53_max        =   9.8553815062692093E-06
(PID.TID 0000.0001) %MON trcstat_ptracer53_min        =   9.5005500431672921-125
(PID.TID 0000.0001) %MON trcstat_ptracer53_mean       =   1.4337892407164717E-07
(PID.TID 0000.0001) %MON trcstat_ptracer53_sd         =   1.1629317564998044E-06
(PID.TID 0000.0001) %MON trcstat_ptracer53_del2       =   0.0000000000000000E+00
(PID.TID 0000.0001) %MON trcstat_ptracer54_max        =   9.7307912328723970E-06
(PID.TID 0000.0001) %MON trcstat_ptracer54_min        =   1.2229534088785939-124
(PID.TID 0000.0001) %MON trcstat_ptracer54_mean       =   1.4158456896814633E-07
(PID.TID 0000.0001) %MON trcstat_ptracer54_sd         =   1.1483480413513361E-06
(PID.TID 0000.0001) %MON trcstat_ptracer54_del2       =   0.0000000000000000E+00
(PID.TID 0000.0001) %MON trcstat_ptracer55_max        =   9.6262790953253900E-06
(PID.TID 0000.0001) %MON trcstat_ptracer55_min        =   1.7901317695292305-124
(PID.TID 0000.0001) %MON trcstat_ptracer55_mean       =   1.4008622633616760E-07
(PID.TID 0000.0001) %MON trcstat_ptracer55_sd         =   1.1361602467654294E-06
(PID.TID 0000.0001) %MON trcstat_ptracer55_del2       =   0.0000000000000000E+00
(PID.TID 0000.0001) %MON trcstat_ptracer56_max        =   9.5387432112774084E-06
(PID.TID 0000.0001) %MON trcstat_ptracer56_min        =   2.9884991795478426-124
(PID.TID 0000.0001) %MON trcstat_ptracer56_mean       =   1.3884023726536246E-07
(PID.TID 0000.0001) %MON trcstat_ptracer56_sd         =   1.1260118483631240E-06
(PID.TID 0000.0001) %MON trcstat_ptracer56_del2       =   0.0000000000000000E+00
(PID.TID 0000.0001) %MON trcstat_ptracer57_max        =   9.4654052487537861E-06
(PID.TID 0000.0001) %MON trcstat_ptracer57_min        =   5.5547535679077508-124
(PID.TID 0000.0001) %MON trcstat_ptracer57_mean       =   1.3780812348863368E-07
(PID.TID 0000.0001) %MON trcstat_ptracer57_sd         =   1.1175877753812185E-06
(PID.TID 0000.0001) %MON trcstat_ptracer57_del2       =   0.0000000000000000E+00
(PID.TID 0000.0001) %MON trcstat_ptracer58_max        =   9.4062248447686034E-06
(PID.TID 0000.0001) %MON trcstat_ptracer58_min        =   1.1110086230290710-123
(PID.TID 0000.0001) %MON trcstat_ptracer58_mean       =   1.3695652437995642E-07
(PID.TID 0000.0001) %MON trcstat_ptracer58_sd         =   1.1106136914219912E-06
(PID.TID 0000.0001) %MON trcstat_ptracer58_del2       =   0.0000000000000000E+00
(PID.TID 0000.0001) %MON trcstat_ptracer59_max        =   9.3187808715887559E-06
(PID.TID 0000.0001) %MON trcstat_ptracer59_min        =   4.9906287467348438-123
(PID.TID 0000.0001) %MON trcstat_ptracer59_mean       =   1.3568470783354303E-07
(PID.TID 0000.0001) %MON trcstat_ptracer59_sd         =   1.1001014128154307E-06
(PID.TID 0000.0001) %MON trcstat_ptracer59_del2       =   0.0000000000000000E+00
(PID.TID 0000.0001) %MON trcstat_ptracer60_max        =   9.2870676214510490E-06
(PID.TID 0000.0001) %MON trcstat_ptracer60_min        =   1.0884074872621469-122
(PID.TID 0000.0001) %MON trcstat_ptracer60_mean       =   1.3522369403719636E-07
(PID.TID 0000.0001) %MON trcstat_ptracer60_sd         =   1.0962185865232204E-06
(PID.TID 0000.0001) %MON trcstat_ptracer60_del2       =   0.0000000000000000E+00
(PID.TID 0000.0001) %MON trcstat_ptracer61_max        =   9.2614047647927295E-06
(PID.TID 0000.0001) %MON trcstat_ptracer61_min        =   2.3963050111628111-122
(PID.TID 0000.0001) %MON trcstat_ptracer61_mean       =   1.3485097844157079E-07
(PID.TID 0000.0001) %MON trcstat_ptracer61_sd         =   1.0930082702729003E-06
(PID.TID 0000.0001) %MON trcstat_ptracer61_del2       =   0.0000000000000000E+00
(PID.TID 0000.0001) %MON trcstat_ptracer62_max        =   9.2407622844194292E-06
(PID.TID 0000.0001) %MON trcstat_ptracer62_min        =   5.3081586807412608-122
(PID.TID 0000.0001) %MON trcstat_ptracer62_mean       =   1.3455169461508775E-07
(PID.TID 0000.0001) %MON trcstat_ptracer62_sd         =   1.0903364250220661E-06
(PID.TID 0000.0001) %MON trcstat_ptracer62_del2       =   0.0000000000000000E+00
(PID.TID 0000.0001) %MON trcstat_ptracer63_max        =   9.2242645459280478E-06
(PID.TID 0000.0001) %MON trcstat_ptracer63_min        =   1.1807053826515834-121
(PID.TID 0000.0001) %MON trcstat_ptracer63_mean       =   1.3431329748491340E-07
(PID.TID 0000.0001) %MON trcstat_ptracer63_sd         =   1.0880838184050541E-06
(PID.TID 0000.0001) %MON trcstat_ptracer63_del2       =   0.0000000000000000E+00
(PID.TID 0000.0001) %MON trcstat_ptracer64_max        =   9.2111601887766216E-06
(PID.TID 0000.0001) %MON trcstat_ptracer64_min        =   2.6339425975249621-121
(PID.TID 0000.0001) %MON trcstat_ptracer64_mean       =   1.3412517376593792E-07
(PID.TID 0000.0001) %MON trcstat_ptracer64_sd         =   1.0861417149500741E-06
(PID.TID 0000.0001) %MON trcstat_ptracer64_del2       =   0.0000000000000000E+00
(PID.TID 0000.0001) %MON trcstat_ptracer65_max        =   1.5705069947744340E-05
(PID.TID 0000.0001) %MON trcstat_ptracer65_min        =   6.7113170297150686-125
(PID.TID 0000.0001) %MON trcstat_ptracer65_mean       =   2.2736479260909833E-07
(PID.TID 0000.0001) %MON trcstat_ptracer65_sd         =   1.8519310586232769E-06
(PID.TID 0000.0001) %MON trcstat_ptracer65_del2       =   0.0000000000000000E+00
(PID.TID 0000.0001) %MON trcstat_ptracer66_max        =   2.4678913965325386E-01
(PID.TID 0000.0001) %MON trcstat_ptracer66_min        =   1.0708394250227537-120
(PID.TID 0000.0001) %MON trcstat_ptracer66_mean       =   3.2221481500566531E-03
(PID.TID 0000.0001) %MON trcstat_ptracer66_sd         =   2.6872271221916232E-02
(PID.TID 0000.0001) %MON trcstat_ptracer66_del2       =   0.0000000000000000E+00
(PID.TID 0000.0001) %MON trcstat_ptracer67_max        =   2.2078263028545056E-01
(PID.TID 0000.0001) %MON trcstat_ptracer67_min        =   1.1228044078048993-120
(PID.TID 0000.0001) %MON trcstat_ptracer67_mean       =   2.9366065861685126E-03
(PID.TID 0000.0001) %MON trcstat_ptracer67_sd         =   2.4325974212951018E-02
(PID.TID 0000.0001) %MON trcstat_ptracer67_del2       =   0.0000000000000000E+00
(PID.TID 0000.0001) %MON trcstat_ptracer68_max        =   2.0020146289817525E-01
(PID.TID 0000.0001) %MON trcstat_ptracer68_min        =   1.2235594730765953-120
(PID.TID 0000.0001) %MON trcstat_ptracer68_mean       =   2.7127507277787278E-03
(PID.TID 0000.0001) %MON trcstat_ptracer68_sd         =   2.2347391782618256E-02
(PID.TID 0000.0001) %MON trcstat_ptracer68_del2       =   0.0000000000000000E+00
(PID.TID 0000.0001) %MON trcstat_ptracer69_max        =   1.8376398300888344E-01
(PID.TID 0000.0001) %MON trcstat_ptracer69_min        =   1.4242160260140929-120
(PID.TID 0000.0001) %MON trcstat_ptracer69_mean       =   2.5280963290796993E-03
(PID.TID 0000.0001) %MON trcstat_ptracer69_sd         =   2.0730856374274825E-02
(PID.TID 0000.0001) %MON trcstat_ptracer69_del2       =   0.0000000000000000E+00
(PID.TID 0000.0001) %MON trcstat_ptracer70_max        =   1.7091914783295584E-01
(PID.TID 0000.0001) %MON trcstat_ptracer70_min        =   1.8332266285202690-120
(PID.TID 0000.0001) %MON trcstat_ptracer70_mean       =   2.3834010653408771E-03
(PID.TID 0000.0001) %MON trcstat_ptracer70_sd         =   1.9475824503117509E-02
(PID.TID 0000.0001) %MON trcstat_ptracer70_del2       =   0.0000000000000000E+00
(PID.TID 0000.0001) %MON trcstat_ptracer71_max        =   1.6117326574506594E-01
(PID.TID 0000.0001) %MON trcstat_ptracer71_min        =   2.6835333176328798-120
(PID.TID 0000.0001) %MON trcstat_ptracer71_mean       =   2.2725497590931187E-03
(PID.TID 0000.0001) %MON trcstat_ptracer71_sd         =   1.8522629200081898E-02
(PID.TID 0000.0001) %MON trcstat_ptracer71_del2       =   0.0000000000000000E+00
(PID.TID 0000.0001) %MON trcstat_ptracer72_max        =   1.5352750240973012E-01
(PID.TID 0000.0001) %MON trcstat_ptracer72_min        =   4.4804584134538230-120
(PID.TID 0000.0001) %MON trcstat_ptracer72_mean       =   2.1852353692237993E-03
(PID.TID 0000.0001) %MON trcstat_ptracer72_sd         =   1.7777629302975131E-02
(PID.TID 0000.0001) %MON trcstat_ptracer72_del2       =   0.0000000000000000E+00
(PID.TID 0000.0001) %MON trcstat_ptracer73_max        =   1.4768172844475755E-01
(PID.TID 0000.0001) %MON trcstat_ptracer73_min        =   8.3289959324898922-120
(PID.TID 0000.0001) %MON trcstat_ptracer73_mean       =   2.1184739597247125E-03
(PID.TID 0000.0001) %MON trcstat_ptracer73_sd         =   1.7211740592314336E-02
(PID.TID 0000.0001) %MON trcstat_ptracer73_del2       =   0.0000000000000000E+00
(PID.TID 0000.0001) %MON trcstat_ptracer74_max        =   1.4325423713284105E-01
(PID.TID 0000.0001) %MON trcstat_ptracer74_min        =   1.6660866193186181-119
(PID.TID 0000.0001) %MON trcstat_ptracer74_mean       =   2.0679096937104065E-03
(PID.TID 0000.0001) %MON trcstat_ptracer74_sd         =   1.6785321496050117E-02
(PID.TID 0000.0001) %MON trcstat_ptracer74_del2       =   0.0000000000000000E+00
(PID.TID 0000.0001) %MON trcstat_ptracer75_max        =   1.3754138088675769E-01
(PID.TID 0000.0001) %MON trcstat_ptracer75_min        =   7.4851708201198316-119
(PID.TID 0000.0001) %MON trcstat_ptracer75_mean       =   2.0026699838974508E-03
(PID.TID 0000.0001) %MON trcstat_ptracer75_sd         =   1.6237103122466196E-02
(PID.TID 0000.0001) %MON trcstat_ptracer75_del2       =   0.0000000000000000E+00
(PID.TID 0000.0001) %MON trcstat_ptracer76_max        =   1.3754131064166808E-01
(PID.TID 0000.0001) %MON trcstat_ptracer76_min        =   1.6325084773381923-118
(PID.TID 0000.0001) %MON trcstat_ptracer76_mean       =   2.0026709186462457E-03
(PID.TID 0000.0001) %MON trcstat_ptracer76_sd         =   1.6234973814830845E-02
(PID.TID 0000.0001) %MON trcstat_ptracer76_del2       =   0.0000000000000000E+00
(PID.TID 0000.0001) %MON trcstat_ptracer77_max        =   1.3754114360831957E-01
(PID.TID 0000.0001) %MON trcstat_ptracer77_min        =   3.5943219320374327-118
(PID.TID 0000.0001) %MON trcstat_ptracer77_mean       =   2.0026803208936161E-03
(PID.TID 0000.0001) %MON trcstat_ptracer77_sd         =   1.6232255965152674E-02
(PID.TID 0000.0001) %MON trcstat_ptracer77_del2       =   0.0000000000000000E+00
(PID.TID 0000.0001) %MON trcstat_ptracer78_max        =   1.3754079646742939E-01
(PID.TID 0000.0001) %MON trcstat_ptracer78_min        =   7.9620606425081297-118
(PID.TID 0000.0001) %MON trcstat_ptracer78_mean       =   2.0026925674344639E-03
(PID.TID 0000.0001) %MON trcstat_ptracer78_sd         =   1.6228701108416496E-02
(PID.TID 0000.0001) %MON trcstat_ptracer78_del2       =   0.0000000000000000E+00
(PID.TID 0000.0001) %MON trcstat_ptracer79_max        =   1.3754012194682036E-01
(PID.TID 0000.0001) %MON trcstat_ptracer79_min        =   1.7710350700011157-117
(PID.TID 0000.0001) %MON trcstat_ptracer79_mean       =   2.0027084983073478E-03
(PID.TID 0000.0001) %MON trcstat_ptracer79_sd         =   1.6224054232371356E-02
(PID.TID 0000.0001) %MON trcstat_ptracer79_del2       =   0.0000000000000000E+00
(PID.TID 0000.0001) %MON trcstat_ptracer80_max        =   1.3753886179370745E-01
(PID.TID 0000.0001) %MON trcstat_ptracer80_min        =   3.9508843219195333-117
(PID.TID 0000.0001) %MON trcstat_ptracer80_mean       =   2.0027291844801824E-03
(PID.TID 0000.0001) %MON trcstat_ptracer80_sd         =   1.6217984578846992E-02
(PID.TID 0000.0001) %MON trcstat_ptracer80_del2       =   0.0000000000000000E+00
(PID.TID 0000.0001) // =======================================================
(PID.TID 0000.0001) // End MONITOR ptracers field statistics
(PID.TID 0000.0001) // =======================================================
 Computing Diagnostic #    156  TRAC01       Counter:       1   Parms: SMR     MR      
 Computing Diagnostic #    169  TRAC02       Counter:       1   Parms: SMR     MR      
 Computing Diagnostic #    182  TRAC03       Counter:       1   Parms: SMR     MR      
 Computing Diagnostic #    195  TRAC04       Counter:       1   Parms: SMR     MR      
 Computing Diagnostic #    208  TRAC05       Counter:       1   Parms: SMR     MR      
 Computing Diagnostic #    221  TRAC06       Counter:       1   Parms: SMR     MR      
 Computing Diagnostic #    234  TRAC07       Counter:       1   Parms: SMR     MR      
 Computing Diagnostic #    247  TRAC08       Counter:       1   Parms: SMR     MR      
 Computing Diagnostic #    260  TRAC09       Counter:       1   Parms: SMR     MR      
 Computing Diagnostic #    273  TRAC10       Counter:       1   Parms: SMR     MR      
 Computing Diagnostic #    286  TRAC11       Counter:       1   Parms: SMR     MR      
 Computing Diagnostic #    299  TRAC12       Counter:       1   Parms: SMR     MR      
 Computing Diagnostic #    312  TRAC13       Counter:       1   Parms: SMR     MR      
 Computing Diagnostic #    325  TRAC14       Counter:       1   Parms: SMR     MR      
 Computing Diagnostic #    338  TRAC15       Counter:       1   Parms: SMR     MR      
 Computing Diagnostic #    351  TRAC16       Counter:       1   Parms: SMR     MR      
 Computing Diagnostic #    364  TRAC17       Counter:       1   Parms: SMR     MR      
 Computing Diagnostic #    377  TRAC18       Counter:       1   Parms: SMR     MR      
 Computing Diagnostic #    390  TRAC19       Counter:       1   Parms: SMR     MR      
 Computing Diagnostic #    403  TRAC20       Counter:       1   Parms: SMR     MR      
 Computing Diagnostic #    416  TRAC21       Counter:       1   Parms: SMR     MR      
 Computing Diagnostic #    429  TRAC22       Counter:       1   Parms: SMR     MR      
 Computing Diagnostic #    442  TRAC23       Counter:       1   Parms: SMR     MR      
 Computing Diagnostic #    455  TRAC24       Counter:       1   Parms: SMR     MR      
 Computing Diagnostic #    468  TRAC25       Counter:       1   Parms: SMR     MR      
 Computing Diagnostic #    481  TRAC26       Counter:       1   Parms: SMR     MR      
 Computing Diagnostic #    494  TRAC27       Counter:       1   Parms: SMR     MR      
 Computing Diagnostic #    507  TRAC28       Counter:       1   Parms: SMR     MR      
 Computing Diagnostic #    520  TRAC29       Counter:       1   Parms: SMR     MR      
 Computing Diagnostic #    533  TRAC30       Counter:       1   Parms: SMR     MR      
 Computing Diagnostic #    546  TRAC31       Counter:       1   Parms: SMR     MR      
 Computing Diagnostic #    559  TRAC32       Counter:       1   Parms: SMR     MR      
 Computing Diagnostic #    572  TRAC33       Counter:       1   Parms: SMR     MR      
 Computing Diagnostic #    585  TRAC34       Counter:       1   Parms: SMR     MR      
 Computing Diagnostic #    598  TRAC35       Counter:       1   Parms: SMR     MR      
 Computing Diagnostic #    611  TRAC36       Counter:       1   Parms: SMR     MR      
 Computing Diagnostic #    624  TRAC37       Counter:       1   Parms: SMR     MR      
 Computing Diagnostic #    637  TRAC38       Counter:       1   Parms: SMR     MR      
 Computing Diagnostic #    650  TRAC39       Counter:       1   Parms: SMR     MR      
 Computing Diagnostic #    663  TRAC40       Counter:       1   Parms: SMR     MR      
 Computing Diagnostic #    676  TRAC41       Counter:       1   Parms: SMR     MR      
 Computing Diagnostic #    689  TRAC42       Counter:       1   Parms: SMR     MR      
 Computing Diagnostic #    702  TRAC43       Counter:       1   Parms: SMR     MR      
 Computing Diagnostic #    715  TRAC44       Counter:       1   Parms: SMR     MR      
 Computing Diagnostic #    728  TRAC45       Counter:       1   Parms: SMR     MR      
 Computing Diagnostic #    741  TRAC46       Counter:       1   Parms: SMR     MR      
 Computing Diagnostic #    754  TRAC47       Counter:       1   Parms: SMR     MR      
 Computing Diagnostic #    767  TRAC48       Counter:       1   Parms: SMR     MR      
 Computing Diagnostic #    780  TRAC49       Counter:       1   Parms: SMR     MR      
 Computing Diagnostic #    793  TRAC50       Counter:       1   Parms: SMR     MR      
 Computing Diagnostic #    806  TRAC51       Counter:       1   Parms: SMR     MR      
 Computing Diagnostic #    819  TRAC52       Counter:       1   Parms: SMR     MR      
 Computing Diagnostic #    832  TRAC53       Counter:       1   Parms: SMR     MR      
 Computing Diagnostic #    845  TRAC54       Counter:       1   Parms: SMR     MR      
 Computing Diagnostic #    858  TRAC55       Counter:       1   Parms: SMR     MR      
 Computing Diagnostic #    871  TRAC56       Counter:       1   Parms: SMR     MR      
 Computing Diagnostic #    884  TRAC57       Counter:       1   Parms: SMR     MR      
 Computing Diagnostic #    897  TRAC58       Counter:       1   Parms: SMR     MR      
 Computing Diagnostic #    910  TRAC59       Counter:       1   Parms: SMR     MR      
 Computing Diagnostic #    923  TRAC60       Counter:       1   Parms: SMR     MR      
 Computing Diagnostic #    936  TRAC61       Counter:       1   Parms: SMR     MR      
 Computing Diagnostic #    949  TRAC62       Counter:       1   Parms: SMR     MR      
 Computing Diagnostic #    962  TRAC63       Counter:       1   Parms: SMR     MR      
 Computing Diagnostic #    975  TRAC64       Counter:       1   Parms: SMR     MR      
 Computing Diagnostic #    988  TRAC65       Counter:       1   Parms: SMR     MR      
 Computing Diagnostic #   1001  TRAC66       Counter:       1   Parms: SMR     MR      
 Computing Diagnostic #   1014  TRAC67       Counter:       1   Parms: SMR     MR      
 Computing Diagnostic #   1027  TRAC68       Counter:       1   Parms: SMR     MR      
 Computing Diagnostic #   1040  TRAC69       Counter:       1   Parms: SMR     MR      
 Computing Diagnostic #   1053  TRAC70       Counter:       1   Parms: SMR     MR      
 Computing Diagnostic #   1066  TRAC71       Counter:       1   Parms: SMR     MR      
 Computing Diagnostic #   1079  TRAC72       Counter:       1   Parms: SMR     MR      
 Computing Diagnostic #   1092  TRAC73       Counter:       1   Parms: SMR     MR      
 Computing Diagnostic #   1105  TRAC74       Counter:       1   Parms: SMR     MR      
 Computing Diagnostic #   1118  TRAC75       Counter:       1   Parms: SMR     MR      
 Computing Diagnostic #   1131  TRAC76       Counter:       1   Parms: SMR     MR      
 Computing Diagnostic #   1144  TRAC77       Counter:       1   Parms: SMR     MR      
 Computing Diagnostic #   1157  TRAC78       Counter:       1   Parms: SMR     MR      
 Computing Diagnostic #   1170  TRAC79       Counter:       1   Parms: SMR     MR      
 Computing Diagnostic #   1183  TRAC80       Counter:       1   Parms: SMR     MR      
 Computing Diagnostic #   1201  PAR01        Counter:       3   Parms: SM P    MR      
 Computing Diagnostic #   1200  PARF         Counter:       3   Parms: SM P    MR      
 Computing Diagnostic #   1197  atten        Counter:       3   Parms: SM P    MR      
 Computing Diagnostic #   1199  surfPAR      Counter:       3   Parms: SM P    MR      
 Computing Diagnostic #   1198  exfPAR       Counter:       1   Parms: SM P    MR      
(PID.TID 0000.0001) // =======================================================
(PID.TID 0000.0001) // Begin MONITOR EXF statistics
(PID.TID 0000.0001) // =======================================================
(PID.TID 0000.0001) %MON exf_tsnumber                 =                     1
(PID.TID 0000.0001) %MON exf_time_sec                 =   1.0800000000000000E+04
(PID.TID 0000.0001) %MON exf_ustress_max              =   0.0000000000000000E+00
(PID.TID 0000.0001) %MON exf_ustress_min              =   0.0000000000000000E+00
(PID.TID 0000.0001) %MON exf_ustress_mean             =   0.0000000000000000E+00
(PID.TID 0000.0001) %MON exf_ustress_sd               =   0.0000000000000000E+00
(PID.TID 0000.0001) %MON exf_ustress_del2             =   0.0000000000000000E+00
(PID.TID 0000.0001) %MON exf_vstress_max              =   0.0000000000000000E+00
(PID.TID 0000.0001) %MON exf_vstress_min              =   0.0000000000000000E+00
(PID.TID 0000.0001) %MON exf_vstress_mean             =   0.0000000000000000E+00
(PID.TID 0000.0001) %MON exf_vstress_sd               =   0.0000000000000000E+00
(PID.TID 0000.0001) %MON exf_vstress_del2             =   0.0000000000000000E+00
(PID.TID 0000.0001) %MON exf_hflux_max                =   0.0000000000000000E+00
(PID.TID 0000.0001) %MON exf_hflux_min                =   0.0000000000000000E+00
(PID.TID 0000.0001) %MON exf_hflux_mean               =   0.0000000000000000E+00
(PID.TID 0000.0001) %MON exf_hflux_sd                 =   0.0000000000000000E+00
(PID.TID 0000.0001) %MON exf_hflux_del2               =   0.0000000000000000E+00
(PID.TID 0000.0001) %MON exf_sflux_max                =   0.0000000000000000E+00
(PID.TID 0000.0001) %MON exf_sflux_min                =   0.0000000000000000E+00
(PID.TID 0000.0001) %MON exf_sflux_mean               =   0.0000000000000000E+00
(PID.TID 0000.0001) %MON exf_sflux_sd                 =   0.0000000000000000E+00
(PID.TID 0000.0001) %MON exf_sflux_del2               =   0.0000000000000000E+00
(PID.TID 0000.0001) %MON exf_uwind_max                =   0.0000000000000000E+00
(PID.TID 0000.0001) %MON exf_uwind_min                =   0.0000000000000000E+00
(PID.TID 0000.0001) %MON exf_uwind_mean               =   0.0000000000000000E+00
(PID.TID 0000.0001) %MON exf_uwind_sd                 =   0.0000000000000000E+00
(PID.TID 0000.0001) %MON exf_uwind_del2               =   0.0000000000000000E+00
(PID.TID 0000.0001) %MON exf_vwind_max                =   0.0000000000000000E+00
(PID.TID 0000.0001) %MON exf_vwind_min                =   0.0000000000000000E+00
(PID.TID 0000.0001) %MON exf_vwind_mean               =   0.0000000000000000E+00
(PID.TID 0000.0001) %MON exf_vwind_sd                 =   0.0000000000000000E+00
(PID.TID 0000.0001) %MON exf_vwind_del2               =   0.0000000000000000E+00
(PID.TID 0000.0001) %MON exf_wspeed_max               =   0.0000000000000000E+00
(PID.TID 0000.0001) %MON exf_wspeed_min               =   0.0000000000000000E+00
(PID.TID 0000.0001) %MON exf_wspeed_mean              =   0.0000000000000000E+00
(PID.TID 0000.0001) %MON exf_wspeed_sd                =   0.0000000000000000E+00
(PID.TID 0000.0001) %MON exf_wspeed_del2              =   0.0000000000000000E+00
(PID.TID 0000.0001) %MON exf_evap_max                 =   0.0000000000000000E+00
(PID.TID 0000.0001) %MON exf_evap_min                 =   0.0000000000000000E+00
(PID.TID 0000.0001) %MON exf_evap_mean                =   0.0000000000000000E+00
(PID.TID 0000.0001) %MON exf_evap_sd                  =   0.0000000000000000E+00
(PID.TID 0000.0001) %MON exf_evap_del2                =   0.0000000000000000E+00
(PID.TID 0000.0001) // =======================================================
(PID.TID 0000.0001) // End MONITOR EXF statistics
(PID.TID 0000.0001) // =======================================================
(PID.TID 0000.0001) totgC    5.4009347065314162E-09   1.3109138677202211E-22
(PID.TID 0000.0001) totgN   -6.5134742044392624E-10  -1.5809492477869668E-23
(PID.TID 0000.0001) totgP    0.0000000000000000E+00   0.0000000000000000E+00
(PID.TID 0000.0001) totgFe  -2.8126844615672038E+01  -6.8269424952141535E-13
(PID.TID 0000.0001) totgSi   0.0000000000000000E+00   0.0000000000000000E+00
 fe   8.4975785740380510E-004
(PID.TID 0000.0001) totgC   -1.9757738173126752E-09  -4.7955945356301059E-23
(PID.TID 0000.0001) totgN   -5.4613735755992820E-10  -1.3255835787823783E-23
(PID.TID 0000.0001) totgP    0.0000000000000000E+00   0.0000000000000000E+00
(PID.TID 0000.0001) totgFe  -2.8118220387283813E+01  -6.8248492241033515E-13
(PID.TID 0000.0001) totgSi   0.0000000000000000E+00   0.0000000000000000E+00
 fe   8.4832503830024495E-004
(PID.TID 0000.0001) totgC    5.4352756336142499E-10   1.3192490911564193E-23
(PID.TID 0000.0001) totgN    4.6202330850064754E-10   1.1214221153072437E-23
(PID.TID 0000.0001) totgP    0.0000000000000000E+00   0.0000000000000000E+00
(PID.TID 0000.0001) totgFe  -2.8110050781145134E+01  -6.8228662988204268E-13
(PID.TID 0000.0001) totgSi   0.0000000000000000E+00   0.0000000000000000E+00
 fe   8.4696057895545477E-004
(PID.TID 0000.0001) // =======================================================
(PID.TID 0000.0001) // Begin MONITOR dynamic field statistics
(PID.TID 0000.0001) // =======================================================
(PID.TID 0000.0001) %MON time_tsnumber                =                     2
(PID.TID 0000.0001) %MON time_secondsf                =   2.1600000000000000E+04
(PID.TID 0000.0001) %MON dynstat_eta_max              =   0.0000000000000000E+00
(PID.TID 0000.0001) %MON dynstat_eta_min              =   0.0000000000000000E+00
(PID.TID 0000.0001) %MON dynstat_eta_mean             =   0.0000000000000000E+00
(PID.TID 0000.0001) %MON dynstat_eta_sd               =   0.0000000000000000E+00
(PID.TID 0000.0001) %MON dynstat_eta_del2             =   0.0000000000000000E+00
(PID.TID 0000.0001) %MON dynstat_uvel_max             =   0.0000000000000000E+00
(PID.TID 0000.0001) %MON dynstat_uvel_min             =   0.0000000000000000E+00
(PID.TID 0000.0001) %MON dynstat_uvel_mean            =   0.0000000000000000E+00
(PID.TID 0000.0001) %MON dynstat_uvel_sd              =   0.0000000000000000E+00
(PID.TID 0000.0001) %MON dynstat_uvel_del2            =   0.0000000000000000E+00
(PID.TID 0000.0001) %MON dynstat_vvel_max             =   0.0000000000000000E+00
(PID.TID 0000.0001) %MON dynstat_vvel_min             =   0.0000000000000000E+00
(PID.TID 0000.0001) %MON dynstat_vvel_mean            =   0.0000000000000000E+00
(PID.TID 0000.0001) %MON dynstat_vvel_sd              =   0.0000000000000000E+00
(PID.TID 0000.0001) %MON dynstat_vvel_del2            =   0.0000000000000000E+00
(PID.TID 0000.0001) %MON dynstat_wvel_max             =   0.0000000000000000E+00
(PID.TID 0000.0001) %MON dynstat_wvel_min             =   0.0000000000000000E+00
(PID.TID 0000.0001) %MON dynstat_wvel_mean            =   0.0000000000000000E+00
(PID.TID 0000.0001) %MON dynstat_wvel_sd              =   0.0000000000000000E+00
(PID.TID 0000.0001) %MON dynstat_wvel_del2            =   0.0000000000000000E+00
(PID.TID 0000.0001) %MON dynstat_theta_max            =   6.5021898417791117E+00
(PID.TID 0000.0001) %MON dynstat_theta_min            =  -9.3888275713118807E-01
(PID.TID 0000.0001) %MON dynstat_theta_mean           =   1.5608386202520222E-01
(PID.TID 0000.0001) %MON dynstat_theta_sd             =   2.0855057882647761E+00
(PID.TID 0000.0001) %MON dynstat_theta_del2           =   0.0000000000000000E+00
(PID.TID 0000.0001) %MON dynstat_salt_max             =   3.5000000000000000E+01
(PID.TID 0000.0001) %MON dynstat_salt_min             =   3.5000000000000000E+01
(PID.TID 0000.0001) %MON dynstat_salt_mean            =   3.5000000000000007E+01
(PID.TID 0000.0001) %MON dynstat_salt_sd              =   7.1054273576010019E-15
(PID.TID 0000.0001) %MON dynstat_salt_del2            =   0.0000000000000000E+00
(PID.TID 0000.0001) %MON dynstat_sst_max              =   6.5021898417791117E+00
(PID.TID 0000.0001) %MON dynstat_sst_min              =   6.5021898417791117E+00
(PID.TID 0000.0001) %MON dynstat_sst_mean             =   6.5021898417791117E+00
(PID.TID 0000.0001) %MON dynstat_sst_sd               =   0.0000000000000000E+00
(PID.TID 0000.0001) %MON dynstat_sst_del2             =   0.0000000000000000E+00
(PID.TID 0000.0001) %MON dynstat_sss_max              =   3.5000000000000000E+01
(PID.TID 0000.0001) %MON dynstat_sss_min              =   3.5000000000000000E+01
(PID.TID 0000.0001) %MON dynstat_sss_mean             =   3.5000000000000000E+01
(PID.TID 0000.0001) %MON dynstat_sss_sd               =   0.0000000000000000E+00
(PID.TID 0000.0001) %MON dynstat_sss_del2             =   0.0000000000000000E+00
(PID.TID 0000.0001) %MON forcing_qnet_max             =   0.0000000000000000E+00
(PID.TID 0000.0001) %MON forcing_qnet_min             =   0.0000000000000000E+00
(PID.TID 0000.0001) %MON forcing_qnet_mean            =   0.0000000000000000E+00
(PID.TID 0000.0001) %MON forcing_qnet_sd              =   0.0000000000000000E+00
(PID.TID 0000.0001) %MON forcing_qnet_del2            =   0.0000000000000000E+00
(PID.TID 0000.0001) %MON forcing_qsw_max              =   0.0000000000000000E+00
(PID.TID 0000.0001) %MON forcing_qsw_min              =   0.0000000000000000E+00
(PID.TID 0000.0001) %MON forcing_qsw_mean             =   0.0000000000000000E+00
(PID.TID 0000.0001) %MON forcing_qsw_sd               =   0.0000000000000000E+00
(PID.TID 0000.0001) %MON forcing_qsw_del2             =   0.0000000000000000E+00
(PID.TID 0000.0001) %MON forcing_empmr_max            =   0.0000000000000000E+00
(PID.TID 0000.0001) %MON forcing_empmr_min            =   0.0000000000000000E+00
(PID.TID 0000.0001) %MON forcing_empmr_mean           =   0.0000000000000000E+00
(PID.TID 0000.0001) %MON forcing_empmr_sd             =   0.0000000000000000E+00
(PID.TID 0000.0001) %MON forcing_empmr_del2           =   0.0000000000000000E+00
(PID.TID 0000.0001) %MON forcing_fu_max               =   2.2750347450375559E+00
(PID.TID 0000.0001) %MON forcing_fu_min               =   2.2750347450375559E+00
(PID.TID 0000.0001) %MON forcing_fu_mean              =   2.2750347450375559E+00
(PID.TID 0000.0001) %MON forcing_fu_sd                =   0.0000000000000000E+00
(PID.TID 0000.0001) %MON forcing_fu_del2              =   0.0000000000000000E+00
(PID.TID 0000.0001) %MON forcing_fv_max               =   1.1445845323304336E+00
(PID.TID 0000.0001) %MON forcing_fv_min               =   1.1445845323304336E+00
(PID.TID 0000.0001) %MON forcing_fv_mean              =   1.1445845323304336E+00
(PID.TID 0000.0001) %MON forcing_fv_sd                =   0.0000000000000000E+00
(PID.TID 0000.0001) %MON forcing_fv_del2              =   0.0000000000000000E+00
(PID.TID 0000.0001) %MON advcfl_uvel_max              =   0.0000000000000000E+00
(PID.TID 0000.0001) %MON advcfl_vvel_max              =   0.0000000000000000E+00
(PID.TID 0000.0001) %MON advcfl_wvel_max              =   0.0000000000000000E+00
(PID.TID 0000.0001) %MON advcfl_W_hf_max              =   0.0000000000000000E+00
(PID.TID 0000.0001) %MON pe_b_mean                    =   0.0000000000000000E+00
(PID.TID 0000.0001) %MON ke_max                       =   0.0000000000000000E+00
(PID.TID 0000.0001) %MON ke_mean                      =   0.0000000000000000E+00
(PID.TID 0000.0001) %MON ke_vol                       =   4.1199767883484609E+13
(PID.TID 0000.0001) %MON vort_r_min                   =   0.0000000000000000E+00
(PID.TID 0000.0001) %MON vort_r_max                   =   0.0000000000000000E+00
(PID.TID 0000.0001) %MON vort_a_mean                  =  -4.5067801836624727E-05
(PID.TID 0000.0001) %MON vort_a_sd                    =  -4.1359030627651384E-25
(PID.TID 0000.0001) %MON vort_p_mean                  =  -4.5067801836624727E-05
(PID.TID 0000.0001) %MON vort_p_sd                    =   0.0000000000000000E+00
(PID.TID 0000.0001) %MON surfExpan_theta_mean         =   0.0000000000000000E+00
(PID.TID 0000.0001) %MON surfExpan_salt_mean          =   0.0000000000000000E+00
(PID.TID 0000.0001) // =======================================================
(PID.TID 0000.0001) // End MONITOR dynamic field statistics
(PID.TID 0000.0001) // =======================================================
(PID.TID 0000.0001) // =======================================================
(PID.TID 0000.0001) // Begin MONITOR ptracer field statistics
(PID.TID 0000.0001) // =======================================================
(PID.TID 0000.0001) %MON trcstat_ptracer01_max        =   2.1623998961111661E+03
(PID.TID 0000.0001) %MON trcstat_ptracer01_min        =   2.0912892629006092E+03
(PID.TID 0000.0001) %MON trcstat_ptracer01_mean       =   2.1557313583694645E+03
(PID.TID 0000.0001) %MON trcstat_ptracer01_sd         =   1.1534622162303142E+01
(PID.TID 0000.0001) %MON trcstat_ptracer01_del2       =   0.0000000000000000E+00
(PID.TID 0000.0001) %MON trcstat_ptracer02_max        =   1.6333793536570452E-03
(PID.TID 0000.0001) %MON trcstat_ptracer02_min        =   1.2805503634919246E-10
(PID.TID 0000.0001) %MON trcstat_ptracer02_mean       =   2.9107170647716117E-04
(PID.TID 0000.0001) %MON trcstat_ptracer02_sd         =   4.0920939407816659E-04
(PID.TID 0000.0001) %MON trcstat_ptracer02_del2       =   0.0000000000000000E+00
(PID.TID 0000.0001) %MON trcstat_ptracer03_max        =   3.7743841358673064E-02
(PID.TID 0000.0001) %MON trcstat_ptracer03_min        =   1.0358546712690551E-11
(PID.TID 0000.0001) %MON trcstat_ptracer03_mean       =   7.2900984779946743E-03
(PID.TID 0000.0001) %MON trcstat_ptracer03_sd         =   9.9869486939647093E-03
(PID.TID 0000.0001) %MON trcstat_ptracer03_del2       =   0.0000000000000000E+00
(PID.TID 0000.0001) %MON trcstat_ptracer04_max        =   1.5341548030946894E+01
(PID.TID 0000.0001) %MON trcstat_ptracer04_min        =   1.1682343996066990E+01
(PID.TID 0000.0001) %MON trcstat_ptracer04_mean       =   1.4468639852292299E+01
(PID.TID 0000.0001) %MON trcstat_ptracer04_sd         =   9.2866512381441280E-01
(PID.TID 0000.0001) %MON trcstat_ptracer04_del2       =   0.0000000000000000E+00
(PID.TID 0000.0001) %MON trcstat_ptracer05_max        =   0.0000000000000000E+00
(PID.TID 0000.0001) %MON trcstat_ptracer05_min        =   0.0000000000000000E+00
(PID.TID 0000.0001) %MON trcstat_ptracer05_mean       =   0.0000000000000000E+00
(PID.TID 0000.0001) %MON trcstat_ptracer05_sd         =   0.0000000000000000E+00
(PID.TID 0000.0001) %MON trcstat_ptracer05_del2       =   0.0000000000000000E+00
(PID.TID 0000.0001) %MON trcstat_ptracer06_max        =   0.0000000000000000E+00
(PID.TID 0000.0001) %MON trcstat_ptracer06_min        =   0.0000000000000000E+00
(PID.TID 0000.0001) %MON trcstat_ptracer06_mean       =   0.0000000000000000E+00
(PID.TID 0000.0001) %MON trcstat_ptracer06_sd         =   0.0000000000000000E+00
(PID.TID 0000.0001) %MON trcstat_ptracer06_del2       =   0.0000000000000000E+00
(PID.TID 0000.0001) %MON trcstat_ptracer07_max        =   9.1625936265720114E-04
(PID.TID 0000.0001) %MON trcstat_ptracer07_min        =   1.8653741174763435E-13
(PID.TID 0000.0001) %MON trcstat_ptracer07_mean       =   5.7963218253118912E-04
(PID.TID 0000.0001) %MON trcstat_ptracer07_sd         =   3.7858677544035671E-04
(PID.TID 0000.0001) %MON trcstat_ptracer07_del2       =   0.0000000000000000E+00
(PID.TID 0000.0001) %MON trcstat_ptracer08_max        =   9.6526728159746678E-01
(PID.TID 0000.0001) %MON trcstat_ptracer08_min        =   4.2484812327527077-115
(PID.TID 0000.0001) %MON trcstat_ptracer08_mean       =   1.5450375606799314E-02
(PID.TID 0000.0001) %MON trcstat_ptracer08_sd         =   1.1650958389543917E-01
(PID.TID 0000.0001) %MON trcstat_ptracer08_del2       =   0.0000000000000000E+00
(PID.TID 0000.0001) %MON trcstat_ptracer09_max        =   4.1295668855352891E-01
(PID.TID 0000.0001) %MON trcstat_ptracer09_min        =   1.2306819351220628E-46
(PID.TID 0000.0001) %MON trcstat_ptracer09_mean       =   3.5245006028199390E-02
(PID.TID 0000.0001) %MON trcstat_ptracer09_sd         =   9.1306376777805232E-02
(PID.TID 0000.0001) %MON trcstat_ptracer09_del2       =   0.0000000000000000E+00
(PID.TID 0000.0001) %MON trcstat_ptracer10_max        =   0.0000000000000000E+00
(PID.TID 0000.0001) %MON trcstat_ptracer10_min        =   0.0000000000000000E+00
(PID.TID 0000.0001) %MON trcstat_ptracer10_mean       =   0.0000000000000000E+00
(PID.TID 0000.0001) %MON trcstat_ptracer10_sd         =   0.0000000000000000E+00
(PID.TID 0000.0001) %MON trcstat_ptracer10_del2       =   0.0000000000000000E+00
(PID.TID 0000.0001) %MON trcstat_ptracer11_max        =   2.1993575136611656E-05
(PID.TID 0000.0001) %MON trcstat_ptracer11_min        =   7.6917621708358084E-51
(PID.TID 0000.0001) %MON trcstat_ptracer11_mean       =   2.1417296512727436E-06
(PID.TID 0000.0001) %MON trcstat_ptracer11_sd         =   5.4747311399075601E-06
(PID.TID 0000.0001) %MON trcstat_ptracer11_del2       =   0.0000000000000000E+00
(PID.TID 0000.0001) %MON trcstat_ptracer12_max        =   6.5156781521912754E-01
(PID.TID 0000.0001) %MON trcstat_ptracer12_min        =   1.8580059412553827-108
(PID.TID 0000.0001) %MON trcstat_ptracer12_mean       =   1.0563896863841843E-02
(PID.TID 0000.0001) %MON trcstat_ptracer12_sd         =   7.8721408768339149E-02
(PID.TID 0000.0001) %MON trcstat_ptracer12_del2       =   0.0000000000000000E+00
(PID.TID 0000.0001) %MON trcstat_ptracer13_max        =   9.9969367965795669E-02
(PID.TID 0000.0001) %MON trcstat_ptracer13_min        =   1.5992724312591699E-07
(PID.TID 0000.0001) %MON trcstat_ptracer13_mean       =   1.6346582026096353E-02
(PID.TID 0000.0001) %MON trcstat_ptracer13_sd         =   1.5032628799357248E-02
(PID.TID 0000.0001) %MON trcstat_ptracer13_del2       =   0.0000000000000000E+00
(PID.TID 0000.0001) %MON trcstat_ptracer14_max        =   0.0000000000000000E+00
(PID.TID 0000.0001) %MON trcstat_ptracer14_min        =   0.0000000000000000E+00
(PID.TID 0000.0001) %MON trcstat_ptracer14_mean       =   0.0000000000000000E+00
(PID.TID 0000.0001) %MON trcstat_ptracer14_sd         =   0.0000000000000000E+00
(PID.TID 0000.0001) %MON trcstat_ptracer14_del2       =   0.0000000000000000E+00
(PID.TID 0000.0001) %MON trcstat_ptracer15_max        =   0.0000000000000000E+00
(PID.TID 0000.0001) %MON trcstat_ptracer15_min        =   0.0000000000000000E+00
(PID.TID 0000.0001) %MON trcstat_ptracer15_mean       =   0.0000000000000000E+00
(PID.TID 0000.0001) %MON trcstat_ptracer15_sd         =   0.0000000000000000E+00
(PID.TID 0000.0001) %MON trcstat_ptracer15_del2       =   0.0000000000000000E+00
(PID.TID 0000.0001) %MON trcstat_ptracer16_max        =   3.8873854912079570E-06
(PID.TID 0000.0001) %MON trcstat_ptracer16_min        =   9.9954517276293438E-12
(PID.TID 0000.0001) %MON trcstat_ptracer16_mean       =   9.8340737386485001E-07
(PID.TID 0000.0001) %MON trcstat_ptracer16_sd         =   7.7482798348148915E-07
(PID.TID 0000.0001) %MON trcstat_ptracer16_del2       =   0.0000000000000000E+00
(PID.TID 0000.0001) %MON trcstat_ptracer17_max        =   0.0000000000000000E+00
(PID.TID 0000.0001) %MON trcstat_ptracer17_min        =   0.0000000000000000E+00
(PID.TID 0000.0001) %MON trcstat_ptracer17_mean       =   0.0000000000000000E+00
(PID.TID 0000.0001) %MON trcstat_ptracer17_sd         =   0.0000000000000000E+00
(PID.TID 0000.0001) %MON trcstat_ptracer17_del2       =   0.0000000000000000E+00
(PID.TID 0000.0001) %MON trcstat_ptracer18_max        =   6.4671640601887770E-01
(PID.TID 0000.0001) %MON trcstat_ptracer18_min        =   4.0382779481815595-117
(PID.TID 0000.0001) %MON trcstat_ptracer18_mean       =   1.0412967577060502E-02
(PID.TID 0000.0001) %MON trcstat_ptracer18_sd         =   7.8065402241230902E-02
(PID.TID 0000.0001) %MON trcstat_ptracer18_del2       =   0.0000000000000000E+00
(PID.TID 0000.0001) %MON trcstat_ptracer19_max        =   6.7074646719720077E-01
(PID.TID 0000.0001) %MON trcstat_ptracer19_min        =   4.8839267783757399-117
(PID.TID 0000.0001) %MON trcstat_ptracer19_mean       =   1.0810265413917049E-02
(PID.TID 0000.0001) %MON trcstat_ptracer19_sd         =   8.1035701792468703E-02
(PID.TID 0000.0001) %MON trcstat_ptracer19_del2       =   0.0000000000000000E+00
(PID.TID 0000.0001) %MON trcstat_ptracer20_max        =   6.9124888440692400E-01
(PID.TID 0000.0001) %MON trcstat_ptracer20_min        =   6.4093349909342448-117
(PID.TID 0000.0001) %MON trcstat_ptracer20_mean       =   1.1148102352952220E-02
(PID.TID 0000.0001) %MON trcstat_ptracer20_sd         =   8.3561101665860019E-02
(PID.TID 0000.0001) %MON trcstat_ptracer20_del2       =   0.0000000000000000E+00
(PID.TID 0000.0001) %MON trcstat_ptracer21_max        =   7.0814710976639694E-01
(PID.TID 0000.0001) %MON trcstat_ptracer21_min        =   9.5150499345509296-117
(PID.TID 0000.0001) %MON trcstat_ptracer21_mean       =   1.1428350191577497E-02
(PID.TID 0000.0001) %MON trcstat_ptracer21_sd         =   8.5655218748459355E-02
(PID.TID 0000.0001) %MON trcstat_ptracer21_del2       =   0.0000000000000000E+00
(PID.TID 0000.0001) %MON trcstat_ptracer22_max        =   7.2192868207041982E-01
(PID.TID 0000.0001) %MON trcstat_ptracer22_min        =   1.6593712237739795-116
(PID.TID 0000.0001) %MON trcstat_ptracer22_mean       =   1.1657398109357394E-02
(PID.TID 0000.0001) %MON trcstat_ptracer22_sd         =   8.7366147299554026E-02
(PID.TID 0000.0001) %MON trcstat_ptracer22_del2       =   0.0000000000000000E+00
(PID.TID 0000.0001) %MON trcstat_ptracer23_max        =   7.3306096452969116E-01
(PID.TID 0000.0001) %MON trcstat_ptracer23_min        =   3.4798718777847219-116
(PID.TID 0000.0001) %MON trcstat_ptracer23_mean       =   1.1842288391713248E-02
(PID.TID 0000.0001) %MON trcstat_ptracer23_sd         =   8.8746568668645553E-02
(PID.TID 0000.0001) %MON trcstat_ptracer23_del2       =   0.0000000000000000E+00
(PID.TID 0000.0001) %MON trcstat_ptracer24_max        =   7.4179346945290336E-01
(PID.TID 0000.0001) %MON trcstat_ptracer24_min        =   8.8281546448563024-116
(PID.TID 0000.0001) %MON trcstat_ptracer24_mean       =   1.1989069511645502E-02
(PID.TID 0000.0001) %MON trcstat_ptracer24_sd         =   8.9841201888020875E-02
(PID.TID 0000.0001) %MON trcstat_ptracer24_del2       =   0.0000000000000000E+00
(PID.TID 0000.0001) %MON trcstat_ptracer25_max        =   7.4857219200222158E-01
(PID.TID 0000.0001) %MON trcstat_ptracer25_min        =   2.6789332749555188-115
(PID.TID 0000.0001) %MON trcstat_ptracer25_mean       =   1.2104409957821770E-02
(PID.TID 0000.0001) %MON trcstat_ptracer25_sd         =   9.0699796101207125E-02
(PID.TID 0000.0001) %MON trcstat_ptracer25_del2       =   0.0000000000000000E+00
(PID.TID 0000.0001) %MON trcstat_ptracer26_max        =   7.5371650152819936E-01
(PID.TID 0000.0001) %MON trcstat_ptracer26_min        =   9.4554887057565904-115
(PID.TID 0000.0001) %MON trcstat_ptracer26_mean       =   1.2193881753512594E-02
(PID.TID 0000.0001) %MON trcstat_ptracer26_sd         =   9.1363666795629586E-02
(PID.TID 0000.0001) %MON trcstat_ptracer26_del2       =   0.0000000000000000E+00
(PID.TID 0000.0001) %MON trcstat_ptracer27_max        =   7.6013728071249764E-01
(PID.TID 0000.0001) %MON trcstat_ptracer27_min        =   1.5988728957543985-113
(PID.TID 0000.0001) %MON trcstat_ptracer27_mean       =   1.2313211853018896E-02
(PID.TID 0000.0001) %MON trcstat_ptracer27_sd         =   9.2240076933266094E-02
(PID.TID 0000.0001) %MON trcstat_ptracer27_del2       =   0.0000000000000000E+00
(PID.TID 0000.0001) %MON trcstat_ptracer28_max        =   7.5950601063532974E-01
(PID.TID 0000.0001) %MON trcstat_ptracer28_min        =   7.1967461594877682-113
(PID.TID 0000.0001) %MON trcstat_ptracer28_mean       =   1.2313324307449533E-02
(PID.TID 0000.0001) %MON trcstat_ptracer28_sd         =   9.2228646931821506E-02
(PID.TID 0000.0001) %MON trcstat_ptracer28_del2       =   0.0000000000000000E+00
(PID.TID 0000.0001) %MON trcstat_ptracer29_max        =   7.5866487034283236E-01
(PID.TID 0000.0001) %MON trcstat_ptracer29_min        =   3.3508518404956002-112
(PID.TID 0000.0001) %MON trcstat_ptracer29_mean       =   1.2313430290498117E-02
(PID.TID 0000.0001) %MON trcstat_ptracer29_sd         =   9.2213351936092411E-02
(PID.TID 0000.0001) %MON trcstat_ptracer29_del2       =   0.0000000000000000E+00
(PID.TID 0000.0001) %MON trcstat_ptracer30_max        =   7.5756592276214263E-01
(PID.TID 0000.0001) %MON trcstat_ptracer30_min        =   1.5959739819827349-111
(PID.TID 0000.0001) %MON trcstat_ptracer30_mean       =   1.2313580232033333E-02
(PID.TID 0000.0001) %MON trcstat_ptracer30_sd         =   9.2193426635675729E-02
(PID.TID 0000.0001) %MON trcstat_ptracer30_del2       =   0.0000000000000000E+00
(PID.TID 0000.0001) %MON trcstat_ptracer31_max        =   7.5612981430739412E-01
(PID.TID 0000.0001) %MON trcstat_ptracer31_min        =   7.7219756403640120-111
(PID.TID 0000.0001) %MON trcstat_ptracer31_mean       =   1.2313787217887366E-02
(PID.TID 0000.0001) %MON trcstat_ptracer31_sd         =   9.2167450368863132E-02
(PID.TID 0000.0001) %MON trcstat_ptracer31_del2       =   0.0000000000000000E+00
(PID.TID 0000.0001) %MON trcstat_ptracer32_max        =   7.5425309977389388E-01
(PID.TID 0000.0001) %MON trcstat_ptracer32_min        =   3.7785399208221175-110
(PID.TID 0000.0001) %MON trcstat_ptracer32_mean       =   1.2314068303170543E-02
(PID.TID 0000.0001) %MON trcstat_ptracer32_sd         =   9.2133575758979736E-02
(PID.TID 0000.0001) %MON trcstat_ptracer32_del2       =   0.0000000000000000E+00
(PID.TID 0000.0001) %MON trcstat_ptracer33_max        =   1.0768549481769139E+00
(PID.TID 0000.0001) %MON trcstat_ptracer33_min        =   4.3128077368042754-117
(PID.TID 0000.0001) %MON trcstat_ptracer33_mean       =   1.7375418730292025E-02
(PID.TID 0000.0001) %MON trcstat_ptracer33_sd         =   1.3048429157344929E-01
(PID.TID 0000.0001) %MON trcstat_ptracer33_del2       =   0.0000000000000000E+00
(PID.TID 0000.0001) %MON trcstat_ptracer34_max        =   1.5725167442325833E-01
(PID.TID 0000.0001) %MON trcstat_ptracer34_min        =   9.3710009844314450-118
(PID.TID 0000.0001) %MON trcstat_ptracer34_mean       =   2.5496140869609857E-03
(PID.TID 0000.0001) %MON trcstat_ptracer34_sd         =   1.9101844444794801E-02
(PID.TID 0000.0001) %MON trcstat_ptracer34_del2       =   0.0000000000000000E+00
(PID.TID 0000.0001) %MON trcstat_ptracer35_max        =   1.4535485134710871E-01
(PID.TID 0000.0001) %MON trcstat_ptracer35_min        =   9.8669654190524905-118
(PID.TID 0000.0001) %MON trcstat_ptracer35_mean       =   2.3567403921182953E-03
(PID.TID 0000.0001) %MON trcstat_ptracer35_sd         =   1.7657081192559810E-02
(PID.TID 0000.0001) %MON trcstat_ptracer35_del2       =   0.0000000000000000E+00
(PID.TID 0000.0001) %MON trcstat_ptracer36_max        =   1.3532326976273740E-01
(PID.TID 0000.0001) %MON trcstat_ptracer36_min        =   1.1487985610555992-117
(PID.TID 0000.0001) %MON trcstat_ptracer36_mean       =   2.1940133012255188E-03
(PID.TID 0000.0001) %MON trcstat_ptracer36_sd         =   1.6438270914606749E-02
(PID.TID 0000.0001) %MON trcstat_ptracer36_del2       =   0.0000000000000000E+00
(PID.TID 0000.0001) %MON trcstat_ptracer37_max        =   1.2702019997760566E-01
(PID.TID 0000.0001) %MON trcstat_ptracer37_min        =   1.5452758074664723-117
(PID.TID 0000.0001) %MON trcstat_ptracer37_mean       =   2.0593663251368775E-03
(PID.TID 0000.0001) %MON trcstat_ptracer37_sd         =   1.5429763789028977E-02
(PID.TID 0000.0001) %MON trcstat_ptracer37_del2       =   0.0000000000000000E+00
(PID.TID 0000.0001) %MON trcstat_ptracer38_max        =   1.2025541321655218E-01
(PID.TID 0000.0001) %MON trcstat_ptracer38_min        =   2.4992327299648628-117
(PID.TID 0000.0001) %MON trcstat_ptracer38_mean       =   1.9497399429711786E-03
(PID.TID 0000.0001) %MON trcstat_ptracer38_sd         =   1.4608562945542448E-02
(PID.TID 0000.0001) %MON trcstat_ptracer38_del2       =   0.0000000000000000E+00
(PID.TID 0000.0001) %MON trcstat_ptracer39_max        =   1.1481509882979775E-01
(PID.TID 0000.0001) %MON trcstat_ptracer39_min        =   4.9720861846514873-117
(PID.TID 0000.0001) %MON trcstat_ptracer39_mean       =   1.8616913468789504E-03
(PID.TID 0000.0001) %MON trcstat_ptracer39_sd         =   1.3948842175551049E-02
(PID.TID 0000.0001) %MON trcstat_ptracer39_del2       =   0.0000000000000000E+00
(PID.TID 0000.0001) %MON trcstat_ptracer40_max        =   1.1048818305393218E-01
(PID.TID 0000.0001) %MON trcstat_ptracer40_min        =   1.2196116078374865-116
(PID.TID 0000.0001) %MON trcstat_ptracer40_mean       =   1.7918259508183515E-03
(PID.TID 0000.0001) %MON trcstat_ptracer40_sd         =   1.3425155445149871E-02
(PID.TID 0000.0001) %MON trcstat_ptracer40_del2       =   0.0000000000000000E+00
(PID.TID 0000.0001) %MON trcstat_ptracer41_max        =   1.0708334594553381E-01
(PID.TID 0000.0001) %MON trcstat_ptracer41_min        =   3.6297968842101952-116
(PID.TID 0000.0001) %MON trcstat_ptracer41_mean       =   1.7370512102470477E-03
(PID.TID 0000.0001) %MON trcstat_ptracer41_sd         =   1.3014326300822499E-02
(PID.TID 0000.0001) %MON trcstat_ptracer41_del2       =   0.0000000000000000E+00
(PID.TID 0000.0001) %MON trcstat_ptracer42_max        =   1.0443156163863229E-01
(PID.TID 0000.0001) %MON trcstat_ptracer42_min        =   1.2685425020340766-115
(PID.TID 0000.0001) %MON trcstat_ptracer42_mean       =   1.6946497704575141E-03
(PID.TID 0000.0001) %MON trcstat_ptracer42_sd         =   1.2695980064823274E-02
(PID.TID 0000.0001) %MON trcstat_ptracer42_del2       =   0.0000000000000000E+00
(PID.TID 0000.0001) %MON trcstat_ptracer43_max        =   1.0084268802899454E-01
(PID.TID 0000.0001) %MON trcstat_ptracer43_min        =   2.1317959604929408-114
(PID.TID 0000.0001) %MON trcstat_ptracer43_mean       =   1.6383796733879519E-03
(PID.TID 0000.0001) %MON trcstat_ptracer43_sd         =   1.2272222423946856E-02
(PID.TID 0000.0001) %MON trcstat_ptracer43_del2       =   0.0000000000000000E+00
(PID.TID 0000.0001) %MON trcstat_ptracer44_max        =   1.0075271650133050E-01
(PID.TID 0000.0001) %MON trcstat_ptracer44_min        =   9.5955737851818306-114
(PID.TID 0000.0001) %MON trcstat_ptracer44_mean       =   1.6383781557442988E-03
(PID.TID 0000.0001) %MON trcstat_ptracer44_sd         =   1.2270572882041053E-02
(PID.TID 0000.0001) %MON trcstat_ptracer44_del2       =   0.0000000000000000E+00
(PID.TID 0000.0001) %MON trcstat_ptracer45_max        =   1.0064220501449767E-01
(PID.TID 0000.0001) %MON trcstat_ptracer45_min        =   4.4677772675677684-113
(PID.TID 0000.0001) %MON trcstat_ptracer45_mean       =   1.6383992689436113E-03
(PID.TID 0000.0001) %MON trcstat_ptracer45_sd         =   1.2268598975414597E-02
(PID.TID 0000.0001) %MON trcstat_ptracer45_del2       =   0.0000000000000000E+00
(PID.TID 0000.0001) %MON trcstat_ptracer46_max        =   1.0049750736085347E-01
(PID.TID 0000.0001) %MON trcstat_ptracer46_min        =   2.1279568901869350-112
(PID.TID 0000.0001) %MON trcstat_ptracer46_mean       =   1.6384267659841046E-03
(PID.TID 0000.0001) %MON trcstat_ptracer46_sd         =   1.2266014930737139E-02
(PID.TID 0000.0001) %MON trcstat_ptracer46_del2       =   0.0000000000000000E+00
(PID.TID 0000.0001) %MON trcstat_ptracer47_max        =   1.0030810408841055E-01
(PID.TID 0000.0001) %MON trcstat_ptracer47_min        =   1.0295934901128006-111
(PID.TID 0000.0001) %MON trcstat_ptracer47_mean       =   1.6384625685379203E-03
(PID.TID 0000.0001) %MON trcstat_ptracer47_sd         =   1.2262633665246499E-02
(PID.TID 0000.0001) %MON trcstat_ptracer47_del2       =   0.0000000000000000E+00
(PID.TID 0000.0001) %MON trcstat_ptracer48_max        =   1.0028451556036211E-01
(PID.TID 0000.0001) %MON trcstat_ptracer48_min        =   5.0380391014992359-111
(PID.TID 0000.0001) %MON trcstat_ptracer48_mean       =   1.6385091519884624E-03
(PID.TID 0000.0001) %MON trcstat_ptracer48_sd         =   1.2258211664261397E-02
(PID.TID 0000.0001) %MON trcstat_ptracer48_del2       =   0.0000000000000000E+00
(PID.TID 0000.0001) %MON trcstat_ptracer49_max        =   1.4873949812443887E-01
(PID.TID 0000.0001) %MON trcstat_ptracer49_min        =   5.9896213348592826-118
(PID.TID 0000.0001) %MON trcstat_ptracer49_mean       =   2.4007484818404602E-03
(PID.TID 0000.0001) %MON trcstat_ptracer49_sd         =   1.8027005929143775E-02
(PID.TID 0000.0001) %MON trcstat_ptracer49_del2       =   0.0000000000000000E+00
(PID.TID 0000.0001) %MON trcstat_ptracer50_max        =   9.5331678988532407E-06
(PID.TID 0000.0001) %MON trcstat_ptracer50_min        =   5.2786056260226985-122
(PID.TID 0000.0001) %MON trcstat_ptracer50_mean       =   1.5442640690755239E-07
(PID.TID 0000.0001) %MON trcstat_ptracer50_sd         =   1.1573616308198236E-06
(PID.TID 0000.0001) %MON trcstat_ptracer50_del2       =   0.0000000000000000E+00
(PID.TID 0000.0001) %MON trcstat_ptracer51_max        =   9.2161597941616736E-06
(PID.TID 0000.0001) %MON trcstat_ptracer51_min        =   5.9540408659266423-122
(PID.TID 0000.0001) %MON trcstat_ptracer51_mean       =   1.4931390671324779E-07
(PID.TID 0000.0001) %MON trcstat_ptracer51_sd         =   1.1190007359987563E-06
(PID.TID 0000.0001) %MON trcstat_ptracer51_del2       =   0.0000000000000000E+00
(PID.TID 0000.0001) %MON trcstat_ptracer52_max        =   8.9405093091645488E-06
(PID.TID 0000.0001) %MON trcstat_ptracer52_min        =   7.3732633017270162-122
(PID.TID 0000.0001) %MON trcstat_ptracer52_mean       =   1.4486954683941221E-07
(PID.TID 0000.0001) %MON trcstat_ptracer52_sd         =   1.0856529378376725E-06
(PID.TID 0000.0001) %MON trcstat_ptracer52_del2       =   0.0000000000000000E+00
(PID.TID 0000.0001) %MON trcstat_ptracer53_max        =   8.7035104973571701E-06
(PID.TID 0000.0001) %MON trcstat_ptracer53_min        =   1.0449339178904021-121
(PID.TID 0000.0001) %MON trcstat_ptracer53_mean       =   1.4105136217947911E-07
(PID.TID 0000.0001) %MON trcstat_ptracer53_sd         =   1.0570012260085343E-06
(PID.TID 0000.0001) %MON trcstat_ptracer53_del2       =   0.0000000000000000E+00
(PID.TID 0000.0001) %MON trcstat_ptracer54_max        =   8.5015805409306311E-06
(PID.TID 0000.0001) %MON trcstat_ptracer54_min        =   1.7601668676680112-121
(PID.TID 0000.0001) %MON trcstat_ptracer54_mean       =   1.3780281171059996E-07
(PID.TID 0000.0001) %MON trcstat_ptracer54_sd         =   1.0326193748399878E-06
(PID.TID 0000.0001) %MON trcstat_ptracer54_del2       =   0.0000000000000000E+00
(PID.TID 0000.0001) %MON trcstat_ptracer55_max        =   8.3307128681941198E-06
(PID.TID 0000.0001) %MON trcstat_ptracer55_min        =   3.6039833928469734-121
(PID.TID 0000.0001) %MON trcstat_ptracer55_mean       =   1.3506084090919111E-07
(PID.TID 0000.0001) %MON trcstat_ptracer55_sd         =   1.0120322597657413E-06
(PID.TID 0000.0001) %MON trcstat_ptracer55_del2       =   0.0000000000000000E+00
(PID.TID 0000.0001) %MON trcstat_ptracer56_max        =   8.1869028517380069E-06
(PID.TID 0000.0001) %MON trcstat_ptracer56_min        =   9.0034339449482956-121
(PID.TID 0000.0001) %MON trcstat_ptracer56_mean       =   1.3276228710104578E-07
(PID.TID 0000.0001) %MON trcstat_ptracer56_sd         =   9.9476387934754242E-07
(PID.TID 0000.0001) %MON trcstat_ptracer56_del2       =   0.0000000000000000E+00
(PID.TID 0000.0001) %MON trcstat_ptracer57_max        =   8.0662951160135142E-06
(PID.TID 0000.0001) %MON trcstat_ptracer57_min        =   2.7069421673494948-120
(PID.TID 0000.0001) %MON trcstat_ptracer57_mean       =   1.3084704995875651E-07
(PID.TID 0000.0001) %MON trcstat_ptracer57_sd         =   9.8036077119589020E-07
(PID.TID 0000.0001) %MON trcstat_ptracer57_del2       =   0.0000000000000000E+00
(PID.TID 0000.0001) %MON trcstat_ptracer58_max        =   7.9653307291469151E-06
(PID.TID 0000.0001) %MON trcstat_ptracer58_min        =   9.5050804126666327-120
(PID.TID 0000.0001) %MON trcstat_ptracer58_mean       =   1.2926026620322355E-07
(PID.TID 0000.0001) %MON trcstat_ptracer58_sd         =   9.6840820116505952E-07
(PID.TID 0000.0001) %MON trcstat_ptracer58_del2       =   0.0000000000000000E+00
(PID.TID 0000.0001) %MON trcstat_ptracer59_max        =   7.8097064079157468E-06
(PID.TID 0000.0001) %MON trcstat_ptracer59_min        =   1.6007966535469615-118
(PID.TID 0000.0001) %MON trcstat_ptracer59_mean       =   1.2688282688253116E-07
(PID.TID 0000.0001) %MON trcstat_ptracer59_sd         =   9.5041785817369133E-07
(PID.TID 0000.0001) %MON trcstat_ptracer59_del2       =   0.0000000000000000E+00
(PID.TID 0000.0001) %MON trcstat_ptracer60_max        =   7.7508500284598095E-06
(PID.TID 0000.0001) %MON trcstat_ptracer60_min        =   7.2016972588356325-118
(PID.TID 0000.0001) %MON trcstat_ptracer60_mean       =   1.2603418194286204E-07
(PID.TID 0000.0001) %MON trcstat_ptracer60_sd         =   9.4393470042929373E-07
(PID.TID 0000.0001) %MON trcstat_ptracer60_del2       =   0.0000000000000000E+00
(PID.TID 0000.0001) %MON trcstat_ptracer61_max        =   7.7000535553103490E-06
(PID.TID 0000.0001) %MON trcstat_ptracer61_min        =   3.3521821586791698-117
(PID.TID 0000.0001) %MON trcstat_ptracer61_mean       =   1.2534799427308151E-07
(PID.TID 0000.0001) %MON trcstat_ptracer61_sd         =   9.3863150829556108E-07
(PID.TID 0000.0001) %MON trcstat_ptracer61_del2       =   0.0000000000000000E+00
(PID.TID 0000.0001) %MON trcstat_ptracer62_max        =   7.6550253360631480E-06
(PID.TID 0000.0001) %MON trcstat_ptracer62_min        =   1.5963415460159385-116
(PID.TID 0000.0001) %MON trcstat_ptracer62_mean       =   1.2479706642495357E-07
(PID.TID 0000.0001) %MON trcstat_ptracer62_sd         =   9.3429284452562807E-07
(PID.TID 0000.0001) %MON trcstat_ptracer62_del2       =   0.0000000000000000E+00
(PID.TID 0000.0001) %MON trcstat_ptracer63_max        =   7.6135485059419490E-06
(PID.TID 0000.0001) %MON trcstat_ptracer63_min        =   7.7230079957181048-116
(PID.TID 0000.0001) %MON trcstat_ptracer63_mean       =   1.2435842513056855E-07
(PID.TID 0000.0001) %MON trcstat_ptracer63_sd         =   9.3073141796179636E-07
(PID.TID 0000.0001) %MON trcstat_ptracer63_del2       =   0.0000000000000000E+00
(PID.TID 0000.0001) %MON trcstat_ptracer64_max        =   7.5901985526317134E-06
(PID.TID 0000.0001) %MON trcstat_ptracer64_min        =   3.7788322575789949-115
(PID.TID 0000.0001) %MON trcstat_ptracer64_mean       =   1.2401262513660177E-07
(PID.TID 0000.0001) %MON trcstat_ptracer64_sd         =   9.2778183344081214E-07
(PID.TID 0000.0001) %MON trcstat_ptracer64_del2       =   0.0000000000000000E+00
(PID.TID 0000.0001) %MON trcstat_ptracer65_max        =   1.9742085501912643E-05
(PID.TID 0000.0001) %MON trcstat_ptracer65_min        =   6.2004927987091699-122
(PID.TID 0000.0001) %MON trcstat_ptracer65_mean       =   3.1755174852242835E-07
(PID.TID 0000.0001) %MON trcstat_ptracer65_sd         =   2.3891772253064233E-06
(PID.TID 0000.0001) %MON trcstat_ptracer65_del2       =   0.0000000000000000E+00
(PID.TID 0000.0001) %MON trcstat_ptracer66_max        =   2.3907011842334638E-01
(PID.TID 0000.0001) %MON trcstat_ptracer66_min        =   1.0096345031700276-117
(PID.TID 0000.0001) %MON trcstat_ptracer66_mean       =   3.7105619721910362E-03
(PID.TID 0000.0001) %MON trcstat_ptracer66_sd         =   2.8232617557761734E-02
(PID.TID 0000.0001) %MON trcstat_ptracer66_del2       =   0.0000000000000000E+00
(PID.TID 0000.0001) %MON trcstat_ptracer67_max        =   2.1293492998970837E-01
(PID.TID 0000.0001) %MON trcstat_ptracer67_min        =   1.0608116420472420-117
(PID.TID 0000.0001) %MON trcstat_ptracer67_mean       =   3.3204629508037011E-03
(PID.TID 0000.0001) %MON trcstat_ptracer67_sd         =   2.5225644008719714E-02
(PID.TID 0000.0001) %MON trcstat_ptracer67_del2       =   0.0000000000000000E+00
(PID.TID 0000.0001) %MON trcstat_ptracer68_max        =   1.9181557059227902E-01
(PID.TID 0000.0001) %MON trcstat_ptracer68_min        =   1.2373440212555707-117
(PID.TID 0000.0001) %MON trcstat_ptracer68_mean       =   2.9972483788510466E-03
(PID.TID 0000.0001) %MON trcstat_ptracer68_sd         =   2.2730664456681465E-02
(PID.TID 0000.0001) %MON trcstat_ptracer68_del2       =   0.0000000000000000E+00
(PID.TID 0000.0001) %MON trcstat_ptracer69_max        =   1.7301471068517454E-01
(PID.TID 0000.0001) %MON trcstat_ptracer69_min        =   1.6709675097167402-117
(PID.TID 0000.0001) %MON trcstat_ptracer69_mean       =   2.7180591549403098E-03
(PID.TID 0000.0001) %MON trcstat_ptracer69_sd         =   2.0571631384519330E-02
(PID.TID 0000.0001) %MON trcstat_ptracer69_del2       =   0.0000000000000000E+00
(PID.TID 0000.0001) %MON trcstat_ptracer70_max        =   1.5764306269805900E-01
(PID.TID 0000.0001) %MON trcstat_ptracer70_min        =   2.7238540698060506-117
(PID.TID 0000.0001) %MON trcstat_ptracer70_mean       =   2.4904293016982889E-03
(PID.TID 0000.0001) %MON trcstat_ptracer70_sd         =   1.8810564709267293E-02
(PID.TID 0000.0001) %MON trcstat_ptracer70_del2       =   0.0000000000000000E+00
(PID.TID 0000.0001) %MON trcstat_ptracer71_max        =   1.4562069382309975E-01
(PID.TID 0000.0001) %MON trcstat_ptracer71_min        =   5.4723329329100812-117
(PID.TID 0000.0001) %MON trcstat_ptracer71_mean       =   2.3100759321959953E-03
(PID.TID 0000.0001) %MON trcstat_ptracer71_sd         =   1.7415686722894373E-02
(PID.TID 0000.0001) %MON trcstat_ptracer71_del2       =   0.0000000000000000E+00
(PID.TID 0000.0001) %MON trcstat_ptracer72_max        =   1.3562755249265454E-01
(PID.TID 0000.0001) %MON trcstat_ptracer72_min        =   1.3540293171258739-116
(PID.TID 0000.0001) %MON trcstat_ptracer72_mean       =   2.1639683834220901E-03
(PID.TID 0000.0001) %MON trcstat_ptracer72_sd         =   1.6285684997227094E-02
(PID.TID 0000.0001) %MON trcstat_ptracer72_del2       =   0.0000000000000000E+00
(PID.TID 0000.0001) %MON trcstat_ptracer73_max        =   1.2776848843900288E-01
(PID.TID 0000.0001) %MON trcstat_ptracer73_min        =   4.0555112536780537-116
(PID.TID 0000.0001) %MON trcstat_ptracer73_mean       =   2.0494557188606398E-03
(PID.TID 0000.0001) %MON trcstat_ptracer73_sd         =   1.5400485905360681E-02
(PID.TID 0000.0001) %MON trcstat_ptracer73_del2       =   0.0000000000000000E+00
(PID.TID 0000.0001) %MON trcstat_ptracer74_max        =   1.2165999866507486E-01
(PID.TID 0000.0001) %MON trcstat_ptracer74_min        =   1.4228251483031571-115
(PID.TID 0000.0001) %MON trcstat_ptracer74_mean       =   1.9608353034381455E-03
(PID.TID 0000.0001) %MON trcstat_ptracer74_sd         =   1.4715713478503699E-02
(PID.TID 0000.0001) %MON trcstat_ptracer74_del2       =   0.0000000000000000E+00
(PID.TID 0000.0001) %MON trcstat_ptracer75_max        =   1.1345635023570168E-01
(PID.TID 0000.0001) %MON trcstat_ptracer75_min        =   2.3982765036565674-114
(PID.TID 0000.0001) %MON trcstat_ptracer75_mean       =   1.8432071952758978E-03
(PID.TID 0000.0001) %MON trcstat_ptracer75_sd         =   1.3806489013520709E-02
(PID.TID 0000.0001) %MON trcstat_ptracer75_del2       =   0.0000000000000000E+00
(PID.TID 0000.0001) %MON trcstat_ptracer76_max        =   1.1334708943172044E-01
(PID.TID 0000.0001) %MON trcstat_ptracer76_min        =   1.0795047495948292-113
(PID.TID 0000.0001) %MON trcstat_ptracer76_mean       =   1.8431800331624197E-03
(PID.TID 0000.0001) %MON trcstat_ptracer76_sd         =   1.3804429003368698E-02
(PID.TID 0000.0001) %MON trcstat_ptracer76_del2       =   0.0000000000000000E+00
(PID.TID 0000.0001) %MON trcstat_ptracer77_max        =   1.1322276369821911E-01
(PID.TID 0000.0001) %MON trcstat_ptracer77_min        =   5.0262619916687176-113
(PID.TID 0000.0001) %MON trcstat_ptracer77_mean       =   1.8432037855710263E-03
(PID.TID 0000.0001) %MON trcstat_ptracer77_sd         =   1.3802208352862303E-02
(PID.TID 0000.0001) %MON trcstat_ptracer77_del2       =   0.0000000000000000E+00
(PID.TID 0000.0001) %MON trcstat_ptracer78_max        =   1.1305997843090626E-01
(PID.TID 0000.0001) %MON trcstat_ptracer78_min        =   2.3939574863540177-112
(PID.TID 0000.0001) %MON trcstat_ptracer78_mean       =   1.8432347198189185E-03
(PID.TID 0000.0001) %MON trcstat_ptracer78_sd         =   1.3799301295332529E-02
(PID.TID 0000.0001) %MON trcstat_ptracer78_del2       =   0.0000000000000000E+00
(PID.TID 0000.0001) %MON trcstat_ptracer79_max        =   1.1284689921670993E-01
(PID.TID 0000.0001) %MON trcstat_ptracer79_min        =   1.1582955721158303-111
(PID.TID 0000.0001) %MON trcstat_ptracer79_mean       =   1.8432749977926554E-03
(PID.TID 0000.0001) %MON trcstat_ptracer79_sd         =   1.3795497362145720E-02
(PID.TID 0000.0001) %MON trcstat_ptracer79_del2       =   0.0000000000000000E+00
(PID.TID 0000.0001) %MON trcstat_ptracer80_max        =   1.1282036205631255E-01
(PID.TID 0000.0001) %MON trcstat_ptracer80_min        =   5.6678081587070326-111
(PID.TID 0000.0001) %MON trcstat_ptracer80_mean       =   1.8433274043055314E-03
(PID.TID 0000.0001) %MON trcstat_ptracer80_sd         =   1.3790522598600580E-02
(PID.TID 0000.0001) %MON trcstat_ptracer80_del2       =   0.0000000000000000E+00
(PID.TID 0000.0001) // =======================================================
(PID.TID 0000.0001) // End MONITOR ptracers field statistics
(PID.TID 0000.0001) // =======================================================
 Computing Diagnostic #    156  TRAC01       Counter:       1   Parms: SMR     MR      
 Computing Diagnostic #    169  TRAC02       Counter:       1   Parms: SMR     MR      
 Computing Diagnostic #    182  TRAC03       Counter:       1   Parms: SMR     MR      
 Computing Diagnostic #    195  TRAC04       Counter:       1   Parms: SMR     MR      
 Computing Diagnostic #    208  TRAC05       Counter:       1   Parms: SMR     MR      
 Computing Diagnostic #    221  TRAC06       Counter:       1   Parms: SMR     MR      
 Computing Diagnostic #    234  TRAC07       Counter:       1   Parms: SMR     MR      
 Computing Diagnostic #    247  TRAC08       Counter:       1   Parms: SMR     MR      
 Computing Diagnostic #    260  TRAC09       Counter:       1   Parms: SMR     MR      
 Computing Diagnostic #    273  TRAC10       Counter:       1   Parms: SMR     MR      
 Computing Diagnostic #    286  TRAC11       Counter:       1   Parms: SMR     MR      
 Computing Diagnostic #    299  TRAC12       Counter:       1   Parms: SMR     MR      
 Computing Diagnostic #    312  TRAC13       Counter:       1   Parms: SMR     MR      
 Computing Diagnostic #    325  TRAC14       Counter:       1   Parms: SMR     MR      
 Computing Diagnostic #    338  TRAC15       Counter:       1   Parms: SMR     MR      
 Computing Diagnostic #    351  TRAC16       Counter:       1   Parms: SMR     MR      
 Computing Diagnostic #    364  TRAC17       Counter:       1   Parms: SMR     MR      
 Computing Diagnostic #    377  TRAC18       Counter:       1   Parms: SMR     MR      
 Computing Diagnostic #    390  TRAC19       Counter:       1   Parms: SMR     MR      
 Computing Diagnostic #    403  TRAC20       Counter:       1   Parms: SMR     MR      
 Computing Diagnostic #    416  TRAC21       Counter:       1   Parms: SMR     MR      
 Computing Diagnostic #    429  TRAC22       Counter:       1   Parms: SMR     MR      
 Computing Diagnostic #    442  TRAC23       Counter:       1   Parms: SMR     MR      
 Computing Diagnostic #    455  TRAC24       Counter:       1   Parms: SMR     MR      
 Computing Diagnostic #    468  TRAC25       Counter:       1   Parms: SMR     MR      
 Computing Diagnostic #    481  TRAC26       Counter:       1   Parms: SMR     MR      
 Computing Diagnostic #    494  TRAC27       Counter:       1   Parms: SMR     MR      
 Computing Diagnostic #    507  TRAC28       Counter:       1   Parms: SMR     MR      
 Computing Diagnostic #    520  TRAC29       Counter:       1   Parms: SMR     MR      
 Computing Diagnostic #    533  TRAC30       Counter:       1   Parms: SMR     MR      
 Computing Diagnostic #    546  TRAC31       Counter:       1   Parms: SMR     MR      
 Computing Diagnostic #    559  TRAC32       Counter:       1   Parms: SMR     MR      
 Computing Diagnostic #    572  TRAC33       Counter:       1   Parms: SMR     MR      
 Computing Diagnostic #    585  TRAC34       Counter:       1   Parms: SMR     MR      
 Computing Diagnostic #    598  TRAC35       Counter:       1   Parms: SMR     MR      
 Computing Diagnostic #    611  TRAC36       Counter:       1   Parms: SMR     MR      
 Computing Diagnostic #    624  TRAC37       Counter:       1   Parms: SMR     MR      
 Computing Diagnostic #    637  TRAC38       Counter:       1   Parms: SMR     MR      
 Computing Diagnostic #    650  TRAC39       Counter:       1   Parms: SMR     MR      
 Computing Diagnostic #    663  TRAC40       Counter:       1   Parms: SMR     MR      
 Computing Diagnostic #    676  TRAC41       Counter:       1   Parms: SMR     MR      
 Computing Diagnostic #    689  TRAC42       Counter:       1   Parms: SMR     MR      
 Computing Diagnostic #    702  TRAC43       Counter:       1   Parms: SMR     MR      
 Computing Diagnostic #    715  TRAC44       Counter:       1   Parms: SMR     MR      
 Computing Diagnostic #    728  TRAC45       Counter:       1   Parms: SMR     MR      
 Computing Diagnostic #    741  TRAC46       Counter:       1   Parms: SMR     MR      
 Computing Diagnostic #    754  TRAC47       Counter:       1   Parms: SMR     MR      
 Computing Diagnostic #    767  TRAC48       Counter:       1   Parms: SMR     MR      
 Computing Diagnostic #    780  TRAC49       Counter:       1   Parms: SMR     MR      
 Computing Diagnostic #    793  TRAC50       Counter:       1   Parms: SMR     MR      
 Computing Diagnostic #    806  TRAC51       Counter:       1   Parms: SMR     MR      
 Computing Diagnostic #    819  TRAC52       Counter:       1   Parms: SMR     MR      
 Computing Diagnostic #    832  TRAC53       Counter:       1   Parms: SMR     MR      
 Computing Diagnostic #    845  TRAC54       Counter:       1   Parms: SMR     MR      
 Computing Diagnostic #    858  TRAC55       Counter:       1   Parms: SMR     MR      
 Computing Diagnostic #    871  TRAC56       Counter:       1   Parms: SMR     MR      
 Computing Diagnostic #    884  TRAC57       Counter:       1   Parms: SMR     MR      
 Computing Diagnostic #    897  TRAC58       Counter:       1   Parms: SMR     MR      
 Computing Diagnostic #    910  TRAC59       Counter:       1   Parms: SMR     MR      
 Computing Diagnostic #    923  TRAC60       Counter:       1   Parms: SMR     MR      
 Computing Diagnostic #    936  TRAC61       Counter:       1   Parms: SMR     MR      
 Computing Diagnostic #    949  TRAC62       Counter:       1   Parms: SMR     MR      
 Computing Diagnostic #    962  TRAC63       Counter:       1   Parms: SMR     MR      
 Computing Diagnostic #    975  TRAC64       Counter:       1   Parms: SMR     MR      
 Computing Diagnostic #    988  TRAC65       Counter:       1   Parms: SMR     MR      
 Computing Diagnostic #   1001  TRAC66       Counter:       1   Parms: SMR     MR      
 Computing Diagnostic #   1014  TRAC67       Counter:       1   Parms: SMR     MR      
 Computing Diagnostic #   1027  TRAC68       Counter:       1   Parms: SMR     MR      
 Computing Diagnostic #   1040  TRAC69       Counter:       1   Parms: SMR     MR      
 Computing Diagnostic #   1053  TRAC70       Counter:       1   Parms: SMR     MR      
 Computing Diagnostic #   1066  TRAC71       Counter:       1   Parms: SMR     MR      
 Computing Diagnostic #   1079  TRAC72       Counter:       1   Parms: SMR     MR      
 Computing Diagnostic #   1092  TRAC73       Counter:       1   Parms: SMR     MR      
 Computing Diagnostic #   1105  TRAC74       Counter:       1   Parms: SMR     MR      
 Computing Diagnostic #   1118  TRAC75       Counter:       1   Parms: SMR     MR      
 Computing Diagnostic #   1131  TRAC76       Counter:       1   Parms: SMR     MR      
 Computing Diagnostic #   1144  TRAC77       Counter:       1   Parms: SMR     MR      
 Computing Diagnostic #   1157  TRAC78       Counter:       1   Parms: SMR     MR      
 Computing Diagnostic #   1170  TRAC79       Counter:       1   Parms: SMR     MR      
 Computing Diagnostic #   1183  TRAC80       Counter:       1   Parms: SMR     MR      
 Computing Diagnostic #   1201  PAR01        Counter:       3   Parms: SM P    MR      
 Computing Diagnostic #   1200  PARF         Counter:       3   Parms: SM P    MR      
 Computing Diagnostic #   1197  atten        Counter:       3   Parms: SM P    MR      
 Computing Diagnostic #   1199  surfPAR      Counter:       3   Parms: SM P    MR      
 Computing Diagnostic #   1198  exfPAR       Counter:       1   Parms: SM P    MR      
(PID.TID 0000.0001) // =======================================================
(PID.TID 0000.0001) // Begin MONITOR EXF statistics
(PID.TID 0000.0001) // =======================================================
(PID.TID 0000.0001) %MON exf_tsnumber                 =                     2
(PID.TID 0000.0001) %MON exf_time_sec                 =   2.1600000000000000E+04
(PID.TID 0000.0001) %MON exf_ustress_max              =   0.0000000000000000E+00
(PID.TID 0000.0001) %MON exf_ustress_min              =   0.0000000000000000E+00
(PID.TID 0000.0001) %MON exf_ustress_mean             =   0.0000000000000000E+00
(PID.TID 0000.0001) %MON exf_ustress_sd               =   0.0000000000000000E+00
(PID.TID 0000.0001) %MON exf_ustress_del2             =   0.0000000000000000E+00
(PID.TID 0000.0001) %MON exf_vstress_max              =   0.0000000000000000E+00
(PID.TID 0000.0001) %MON exf_vstress_min              =   0.0000000000000000E+00
(PID.TID 0000.0001) %MON exf_vstress_mean             =   0.0000000000000000E+00
(PID.TID 0000.0001) %MON exf_vstress_sd               =   0.0000000000000000E+00
(PID.TID 0000.0001) %MON exf_vstress_del2             =   0.0000000000000000E+00
(PID.TID 0000.0001) %MON exf_hflux_max                =   0.0000000000000000E+00
(PID.TID 0000.0001) %MON exf_hflux_min                =   0.0000000000000000E+00
(PID.TID 0000.0001) %MON exf_hflux_mean               =   0.0000000000000000E+00
(PID.TID 0000.0001) %MON exf_hflux_sd                 =   0.0000000000000000E+00
(PID.TID 0000.0001) %MON exf_hflux_del2               =   0.0000000000000000E+00
(PID.TID 0000.0001) %MON exf_sflux_max                =   0.0000000000000000E+00
(PID.TID 0000.0001) %MON exf_sflux_min                =   0.0000000000000000E+00
(PID.TID 0000.0001) %MON exf_sflux_mean               =   0.0000000000000000E+00
(PID.TID 0000.0001) %MON exf_sflux_sd                 =   0.0000000000000000E+00
(PID.TID 0000.0001) %MON exf_sflux_del2               =   0.0000000000000000E+00
(PID.TID 0000.0001) %MON exf_uwind_max                =   0.0000000000000000E+00
(PID.TID 0000.0001) %MON exf_uwind_min                =   0.0000000000000000E+00
(PID.TID 0000.0001) %MON exf_uwind_mean               =   0.0000000000000000E+00
(PID.TID 0000.0001) %MON exf_uwind_sd                 =   0.0000000000000000E+00
(PID.TID 0000.0001) %MON exf_uwind_del2               =   0.0000000000000000E+00
(PID.TID 0000.0001) %MON exf_vwind_max                =   0.0000000000000000E+00
(PID.TID 0000.0001) %MON exf_vwind_min                =   0.0000000000000000E+00
(PID.TID 0000.0001) %MON exf_vwind_mean               =   0.0000000000000000E+00
(PID.TID 0000.0001) %MON exf_vwind_sd                 =   0.0000000000000000E+00
(PID.TID 0000.0001) %MON exf_vwind_del2               =   0.0000000000000000E+00
(PID.TID 0000.0001) %MON exf_wspeed_max               =   0.0000000000000000E+00
(PID.TID 0000.0001) %MON exf_wspeed_min               =   0.0000000000000000E+00
(PID.TID 0000.0001) %MON exf_wspeed_mean              =   0.0000000000000000E+00
(PID.TID 0000.0001) %MON exf_wspeed_sd                =   0.0000000000000000E+00
(PID.TID 0000.0001) %MON exf_wspeed_del2              =   0.0000000000000000E+00
(PID.TID 0000.0001) %MON exf_evap_max                 =   0.0000000000000000E+00
(PID.TID 0000.0001) %MON exf_evap_min                 =   0.0000000000000000E+00
(PID.TID 0000.0001) %MON exf_evap_mean                =   0.0000000000000000E+00
(PID.TID 0000.0001) %MON exf_evap_sd                  =   0.0000000000000000E+00
(PID.TID 0000.0001) %MON exf_evap_del2                =   0.0000000000000000E+00
(PID.TID 0000.0001) // =======================================================
(PID.TID 0000.0001) // End MONITOR EXF statistics
(PID.TID 0000.0001) // =======================================================
(PID.TID 0000.0001) totgC    7.8203504470115120E-10   1.8981540063837077E-23
(PID.TID 0000.0001) totgN   -3.5103653317491990E-10  -8.5203522060530061E-24
(PID.TID 0000.0001) totgP    0.0000000000000000E+00   0.0000000000000000E+00
(PID.TID 0000.0001) totgFe  -2.8101878854396748E+01  -6.8208828102795461E-13
(PID.TID 0000.0001) totgSi   0.0000000000000000E+00   0.0000000000000000E+00
 fe   8.4724812039334448E-004
(PID.TID 0000.0001) totgC    4.8786570377648490E-09   1.1841467290694406E-22
(PID.TID 0000.0001) totgN    1.7578827282704879E-10   4.2667296894533113E-24
(PID.TID 0000.0001) totgP    0.0000000000000000E+00   0.0000000000000000E+00
(PID.TID 0000.0001) totgFe  -2.8094401035391936E+01  -6.8190677954411228E-13
(PID.TID 0000.0001) totgSi   0.0000000000000000E+00   0.0000000000000000E+00
 fe   8.4626332463881300E-004
(PID.TID 0000.0001) totgC    2.0618913271441425E-09   5.0046187953662596E-23
(PID.TID 0000.0001) totgN   -4.6867398850736208E-10  -1.1375646334532756E-23
(PID.TID 0000.0001) totgP    0.0000000000000000E+00   0.0000000000000000E+00
(PID.TID 0000.0001) totgFe  -2.8087286360336243E+01  -6.8173409228345068E-13
(PID.TID 0000.0001) totgSi   0.0000000000000000E+00   0.0000000000000000E+00
 fe   8.4532903944596681E-004
(PID.TID 0000.0001) // =======================================================
(PID.TID 0000.0001) // Begin MONITOR dynamic field statistics
(PID.TID 0000.0001) // =======================================================
(PID.TID 0000.0001) %MON time_tsnumber                =                     3
(PID.TID 0000.0001) %MON time_secondsf                =   3.2400000000000000E+04
(PID.TID 0000.0001) %MON dynstat_eta_max              =   0.0000000000000000E+00
(PID.TID 0000.0001) %MON dynstat_eta_min              =   0.0000000000000000E+00
(PID.TID 0000.0001) %MON dynstat_eta_mean             =   0.0000000000000000E+00
(PID.TID 0000.0001) %MON dynstat_eta_sd               =   0.0000000000000000E+00
(PID.TID 0000.0001) %MON dynstat_eta_del2             =   0.0000000000000000E+00
(PID.TID 0000.0001) %MON dynstat_uvel_max             =   0.0000000000000000E+00
(PID.TID 0000.0001) %MON dynstat_uvel_min             =   0.0000000000000000E+00
(PID.TID 0000.0001) %MON dynstat_uvel_mean            =   0.0000000000000000E+00
(PID.TID 0000.0001) %MON dynstat_uvel_sd              =   0.0000000000000000E+00
(PID.TID 0000.0001) %MON dynstat_uvel_del2            =   0.0000000000000000E+00
(PID.TID 0000.0001) %MON dynstat_vvel_max             =   0.0000000000000000E+00
(PID.TID 0000.0001) %MON dynstat_vvel_min             =   0.0000000000000000E+00
(PID.TID 0000.0001) %MON dynstat_vvel_mean            =   0.0000000000000000E+00
(PID.TID 0000.0001) %MON dynstat_vvel_sd              =   0.0000000000000000E+00
(PID.TID 0000.0001) %MON dynstat_vvel_del2            =   0.0000000000000000E+00
(PID.TID 0000.0001) %MON dynstat_wvel_max             =   0.0000000000000000E+00
(PID.TID 0000.0001) %MON dynstat_wvel_min             =   0.0000000000000000E+00
(PID.TID 0000.0001) %MON dynstat_wvel_mean            =   0.0000000000000000E+00
(PID.TID 0000.0001) %MON dynstat_wvel_sd              =   0.0000000000000000E+00
(PID.TID 0000.0001) %MON dynstat_wvel_del2            =   0.0000000000000000E+00
(PID.TID 0000.0001) %MON dynstat_theta_max            =   6.4982507919170924E+00
(PID.TID 0000.0001) %MON dynstat_theta_min            =  -9.3887414449176576E-01
(PID.TID 0000.0001) %MON dynstat_theta_mean           =   1.5610609119765081E-01
(PID.TID 0000.0001) %MON dynstat_theta_sd             =   2.0855626582258799E+00
(PID.TID 0000.0001) %MON dynstat_theta_del2           =   0.0000000000000000E+00
(PID.TID 0000.0001) %MON dynstat_salt_max             =   3.5000000000000000E+01
(PID.TID 0000.0001) %MON dynstat_salt_min             =   3.5000000000000000E+01
(PID.TID 0000.0001) %MON dynstat_salt_mean            =   3.5000000000000007E+01
(PID.TID 0000.0001) %MON dynstat_salt_sd              =   7.1054273576010019E-15
(PID.TID 0000.0001) %MON dynstat_salt_del2            =   0.0000000000000000E+00
(PID.TID 0000.0001) %MON dynstat_sst_max              =   6.4982507919170924E+00
(PID.TID 0000.0001) %MON dynstat_sst_min              =   6.4982507919170924E+00
(PID.TID 0000.0001) %MON dynstat_sst_mean             =   6.4982507919170924E+00
(PID.TID 0000.0001) %MON dynstat_sst_sd               =   0.0000000000000000E+00
(PID.TID 0000.0001) %MON dynstat_sst_del2             =   0.0000000000000000E+00
(PID.TID 0000.0001) %MON dynstat_sss_max              =   3.5000000000000000E+01
(PID.TID 0000.0001) %MON dynstat_sss_min              =   3.5000000000000000E+01
(PID.TID 0000.0001) %MON dynstat_sss_mean             =   3.5000000000000000E+01
(PID.TID 0000.0001) %MON dynstat_sss_sd               =   0.0000000000000000E+00
(PID.TID 0000.0001) %MON dynstat_sss_del2             =   0.0000000000000000E+00
(PID.TID 0000.0001) %MON forcing_qnet_max             =   0.0000000000000000E+00
(PID.TID 0000.0001) %MON forcing_qnet_min             =   0.0000000000000000E+00
(PID.TID 0000.0001) %MON forcing_qnet_mean            =   0.0000000000000000E+00
(PID.TID 0000.0001) %MON forcing_qnet_sd              =   0.0000000000000000E+00
(PID.TID 0000.0001) %MON forcing_qnet_del2            =   0.0000000000000000E+00
(PID.TID 0000.0001) %MON forcing_qsw_max              =   0.0000000000000000E+00
(PID.TID 0000.0001) %MON forcing_qsw_min              =   0.0000000000000000E+00
(PID.TID 0000.0001) %MON forcing_qsw_mean             =   0.0000000000000000E+00
(PID.TID 0000.0001) %MON forcing_qsw_sd               =   0.0000000000000000E+00
(PID.TID 0000.0001) %MON forcing_qsw_del2             =   0.0000000000000000E+00
(PID.TID 0000.0001) %MON forcing_empmr_max            =   0.0000000000000000E+00
(PID.TID 0000.0001) %MON forcing_empmr_min            =   0.0000000000000000E+00
(PID.TID 0000.0001) %MON forcing_empmr_mean           =   0.0000000000000000E+00
(PID.TID 0000.0001) %MON forcing_empmr_sd             =   0.0000000000000000E+00
(PID.TID 0000.0001) %MON forcing_empmr_del2           =   0.0000000000000000E+00
(PID.TID 0000.0001) %MON forcing_fu_max               =   2.2715694695711135E+00
(PID.TID 0000.0001) %MON forcing_fu_min               =   2.2715694695711135E+00
(PID.TID 0000.0001) %MON forcing_fu_mean              =   2.2715694695711135E+00
(PID.TID 0000.0001) %MON forcing_fu_sd                =   0.0000000000000000E+00
(PID.TID 0000.0001) %MON forcing_fu_del2              =   0.0000000000000000E+00
(PID.TID 0000.0001) %MON forcing_fv_max               =   1.1480025862654051E+00
(PID.TID 0000.0001) %MON forcing_fv_min               =   1.1480025862654051E+00
(PID.TID 0000.0001) %MON forcing_fv_mean              =   1.1480025862654051E+00
(PID.TID 0000.0001) %MON forcing_fv_sd                =   0.0000000000000000E+00
(PID.TID 0000.0001) %MON forcing_fv_del2              =   0.0000000000000000E+00
(PID.TID 0000.0001) %MON advcfl_uvel_max              =   0.0000000000000000E+00
(PID.TID 0000.0001) %MON advcfl_vvel_max              =   0.0000000000000000E+00
(PID.TID 0000.0001) %MON advcfl_wvel_max              =   0.0000000000000000E+00
(PID.TID 0000.0001) %MON advcfl_W_hf_max              =   0.0000000000000000E+00
(PID.TID 0000.0001) %MON pe_b_mean                    =   0.0000000000000000E+00
(PID.TID 0000.0001) %MON ke_max                       =   0.0000000000000000E+00
(PID.TID 0000.0001) %MON ke_mean                      =   0.0000000000000000E+00
(PID.TID 0000.0001) %MON ke_vol                       =   4.1199767883484609E+13
(PID.TID 0000.0001) %MON vort_r_min                   =   0.0000000000000000E+00
(PID.TID 0000.0001) %MON vort_r_max                   =   0.0000000000000000E+00
(PID.TID 0000.0001) %MON vort_a_mean                  =  -4.5067801836624727E-05
(PID.TID 0000.0001) %MON vort_a_sd                    =  -4.1359030627651384E-25
(PID.TID 0000.0001) %MON vort_p_mean                  =  -4.5067801836624727E-05
(PID.TID 0000.0001) %MON vort_p_sd                    =   0.0000000000000000E+00
(PID.TID 0000.0001) %MON surfExpan_theta_mean         =   0.0000000000000000E+00
(PID.TID 0000.0001) %MON surfExpan_salt_mean          =   0.0000000000000000E+00
(PID.TID 0000.0001) // =======================================================
(PID.TID 0000.0001) // End MONITOR dynamic field statistics
(PID.TID 0000.0001) // =======================================================
(PID.TID 0000.0001) // =======================================================
(PID.TID 0000.0001) // Begin MONITOR ptracer field statistics
(PID.TID 0000.0001) // =======================================================
(PID.TID 0000.0001) %MON trcstat_ptracer01_max        =   2.1623998929961931E+03
(PID.TID 0000.0001) %MON trcstat_ptracer01_min        =   2.0951914805041270E+03
(PID.TID 0000.0001) %MON trcstat_ptracer01_mean       =   2.1557333285347240E+03
(PID.TID 0000.0001) %MON trcstat_ptracer01_sd         =   1.1434415475116660E+01
(PID.TID 0000.0001) %MON trcstat_ptracer01_del2       =   0.0000000000000000E+00
(PID.TID 0000.0001) %MON trcstat_ptracer02_max        =   1.5782687946760241E-03
(PID.TID 0000.0001) %MON trcstat_ptracer02_min        =   5.0799601183957794E-10
(PID.TID 0000.0001) %MON trcstat_ptracer02_mean       =   2.8729628912844849E-04
(PID.TID 0000.0001) %MON trcstat_ptracer02_sd         =   4.0873626041769428E-04
(PID.TID 0000.0001) %MON trcstat_ptracer02_del2       =   0.0000000000000000E+00
(PID.TID 0000.0001) %MON trcstat_ptracer03_max        =   3.7633648888424881E-02
(PID.TID 0000.0001) %MON trcstat_ptracer03_min        =   7.5461180124199049E-11
(PID.TID 0000.0001) %MON trcstat_ptracer03_mean       =   7.1900283800179314E-03
(PID.TID 0000.0001) %MON trcstat_ptracer03_sd         =   9.7600458526993315E-03
(PID.TID 0000.0001) %MON trcstat_ptracer03_del2       =   0.0000000000000000E+00
(PID.TID 0000.0001) %MON trcstat_ptracer04_max        =   1.5341521854319394E+01
(PID.TID 0000.0001) %MON trcstat_ptracer04_min        =   1.1692604230080812E+01
(PID.TID 0000.0001) %MON trcstat_ptracer04_mean       =   1.4467905164001214E+01
(PID.TID 0000.0001) %MON trcstat_ptracer04_sd         =   9.3076951964054844E-01
(PID.TID 0000.0001) %MON trcstat_ptracer04_del2       =   0.0000000000000000E+00
(PID.TID 0000.0001) %MON trcstat_ptracer05_max        =   0.0000000000000000E+00
(PID.TID 0000.0001) %MON trcstat_ptracer05_min        =   0.0000000000000000E+00
(PID.TID 0000.0001) %MON trcstat_ptracer05_mean       =   0.0000000000000000E+00
(PID.TID 0000.0001) %MON trcstat_ptracer05_sd         =   0.0000000000000000E+00
(PID.TID 0000.0001) %MON trcstat_ptracer05_del2       =   0.0000000000000000E+00
(PID.TID 0000.0001) %MON trcstat_ptracer06_max        =   0.0000000000000000E+00
(PID.TID 0000.0001) %MON trcstat_ptracer06_min        =   0.0000000000000000E+00
(PID.TID 0000.0001) %MON trcstat_ptracer06_mean       =   0.0000000000000000E+00
(PID.TID 0000.0001) %MON trcstat_ptracer06_sd         =   0.0000000000000000E+00
(PID.TID 0000.0001) %MON trcstat_ptracer06_del2       =   0.0000000000000000E+00
(PID.TID 0000.0001) %MON trcstat_ptracer07_max        =   9.1624247152596980E-04
(PID.TID 0000.0001) %MON trcstat_ptracer07_min        =   3.9220784887292671E-13
(PID.TID 0000.0001) %MON trcstat_ptracer07_mean       =   5.7956039515398529E-04
(PID.TID 0000.0001) %MON trcstat_ptracer07_sd         =   3.7853530580771064E-04
(PID.TID 0000.0001) %MON trcstat_ptracer07_del2       =   0.0000000000000000E+00
(PID.TID 0000.0001) %MON trcstat_ptracer08_max        =   1.2149839468178643E+00
(PID.TID 0000.0001) %MON trcstat_ptracer08_min        =   7.5001631723695425-110
(PID.TID 0000.0001) %MON trcstat_ptracer08_mean       =   2.3551828638487232E-02
(PID.TID 0000.0001) %MON trcstat_ptracer08_sd         =   1.5676224796486318E-01
(PID.TID 0000.0001) %MON trcstat_ptracer08_del2       =   0.0000000000000000E+00
(PID.TID 0000.0001) %MON trcstat_ptracer09_max        =   4.6013501683674884E-01
(PID.TID 0000.0001) %MON trcstat_ptracer09_min        =   6.1475578720643350E-46
(PID.TID 0000.0001) %MON trcstat_ptracer09_mean       =   3.6601795685169032E-02
(PID.TID 0000.0001) %MON trcstat_ptracer09_sd         =   9.6368261686583787E-02
(PID.TID 0000.0001) %MON trcstat_ptracer09_del2       =   0.0000000000000000E+00
(PID.TID 0000.0001) %MON trcstat_ptracer10_max        =   0.0000000000000000E+00
(PID.TID 0000.0001) %MON trcstat_ptracer10_min        =   0.0000000000000000E+00
(PID.TID 0000.0001) %MON trcstat_ptracer10_mean       =   0.0000000000000000E+00
(PID.TID 0000.0001) %MON trcstat_ptracer10_sd         =   0.0000000000000000E+00
(PID.TID 0000.0001) %MON trcstat_ptracer10_del2       =   0.0000000000000000E+00
(PID.TID 0000.0001) %MON trcstat_ptracer11_max        =   2.3856388297409742E-05
(PID.TID 0000.0001) %MON trcstat_ptracer11_min        =   3.8422237081652025E-50
(PID.TID 0000.0001) %MON trcstat_ptracer11_mean       =   2.1925591681194199E-06
(PID.TID 0000.0001) %MON trcstat_ptracer11_sd         =   5.6495387319528704E-06
(PID.TID 0000.0001) %MON trcstat_ptracer11_del2       =   0.0000000000000000E+00
(PID.TID 0000.0001) %MON trcstat_ptracer12_max        =   8.1982266329845699E-01
(PID.TID 0000.0001) %MON trcstat_ptracer12_min        =   1.0304471542771583E-99
(PID.TID 0000.0001) %MON trcstat_ptracer12_mean       =   1.6249616622715766E-02
(PID.TID 0000.0001) %MON trcstat_ptracer12_sd         =   1.0698790243253542E-01
(PID.TID 0000.0001) %MON trcstat_ptracer12_del2       =   0.0000000000000000E+00
(PID.TID 0000.0001) %MON trcstat_ptracer13_max        =   1.2782363693624735E-01
(PID.TID 0000.0001) %MON trcstat_ptracer13_min        =   3.8764781833240096E-07
(PID.TID 0000.0001) %MON trcstat_ptracer13_mean       =   1.7197591321373756E-02
(PID.TID 0000.0001) %MON trcstat_ptracer13_sd         =   1.8303294064400070E-02
(PID.TID 0000.0001) %MON trcstat_ptracer13_del2       =   0.0000000000000000E+00
(PID.TID 0000.0001) %MON trcstat_ptracer14_max        =   0.0000000000000000E+00
(PID.TID 0000.0001) %MON trcstat_ptracer14_min        =   0.0000000000000000E+00
(PID.TID 0000.0001) %MON trcstat_ptracer14_mean       =   0.0000000000000000E+00
(PID.TID 0000.0001) %MON trcstat_ptracer14_sd         =   0.0000000000000000E+00
(PID.TID 0000.0001) %MON trcstat_ptracer14_del2       =   0.0000000000000000E+00
(PID.TID 0000.0001) %MON trcstat_ptracer15_max        =   0.0000000000000000E+00
(PID.TID 0000.0001) %MON trcstat_ptracer15_min        =   0.0000000000000000E+00
(PID.TID 0000.0001) %MON trcstat_ptracer15_mean       =   0.0000000000000000E+00
(PID.TID 0000.0001) %MON trcstat_ptracer15_sd         =   0.0000000000000000E+00
(PID.TID 0000.0001) %MON trcstat_ptracer15_del2       =   0.0000000000000000E+00
(PID.TID 0000.0001) %MON trcstat_ptracer16_max        =   5.0569783746252752E-06
(PID.TID 0000.0001) %MON trcstat_ptracer16_min        =   2.4227986302500490E-11
(PID.TID 0000.0001) %MON trcstat_ptracer16_mean       =   1.0167143538446340E-06
(PID.TID 0000.0001) %MON trcstat_ptracer16_sd         =   8.6920097338649130E-07
(PID.TID 0000.0001) %MON trcstat_ptracer16_del2       =   0.0000000000000000E+00
(PID.TID 0000.0001) %MON trcstat_ptracer17_max        =   0.0000000000000000E+00
(PID.TID 0000.0001) %MON trcstat_ptracer17_min        =   0.0000000000000000E+00
(PID.TID 0000.0001) %MON trcstat_ptracer17_mean       =   0.0000000000000000E+00
(PID.TID 0000.0001) %MON trcstat_ptracer17_sd         =   0.0000000000000000E+00
(PID.TID 0000.0001) %MON trcstat_ptracer17_del2       =   0.0000000000000000E+00
(PID.TID 0000.0001) %MON trcstat_ptracer18_max        =   4.7050096043850637E-01
(PID.TID 0000.0001) %MON trcstat_ptracer18_min        =   8.5457191698601253-112
(PID.TID 0000.0001) %MON trcstat_ptracer18_mean       =   9.1681728041459742E-03
(PID.TID 0000.0001) %MON trcstat_ptracer18_sd         =   6.0765972856849419E-02
(PID.TID 0000.0001) %MON trcstat_ptracer18_del2       =   0.0000000000000000E+00
(PID.TID 0000.0001) %MON trcstat_ptracer19_max        =   4.8871336705157059E-01
(PID.TID 0000.0001) %MON trcstat_ptracer19_min        =   9.4625278807840793-112
(PID.TID 0000.0001) %MON trcstat_ptracer19_mean       =   9.5360626267845007E-03
(PID.TID 0000.0001) %MON trcstat_ptracer19_sd         =   6.3196373436916253E-02
(PID.TID 0000.0001) %MON trcstat_ptracer19_del2       =   0.0000000000000000E+00
(PID.TID 0000.0001) %MON trcstat_ptracer20_max        =   5.0511700048844044E-01
(PID.TID 0000.0001) %MON trcstat_ptracer20_min        =   1.0787583408000749-111
(PID.TID 0000.0001) %MON trcstat_ptracer20_mean       =   9.8660885890796569E-03
(PID.TID 0000.0001) %MON trcstat_ptracer20_sd         =   6.5376342441591323E-02
(PID.TID 0000.0001) %MON trcstat_ptracer20_del2       =   0.0000000000000000E+00
(PID.TID 0000.0001) %MON trcstat_ptracer21_max        =   5.1922004562443536E-01
(PID.TID 0000.0001) %MON trcstat_ptracer21_min        =   1.3031907581762519-111
(PID.TID 0000.0001) %MON trcstat_ptracer21_mean       =   1.0152057398150977E-02
(PID.TID 0000.0001) %MON trcstat_ptracer21_sd         =   6.7264419649077270E-02
(PID.TID 0000.0001) %MON trcstat_ptracer21_del2       =   0.0000000000000000E+00
(PID.TID 0000.0001) %MON trcstat_ptracer22_max        =   5.3116064591331835E-01
(PID.TID 0000.0001) %MON trcstat_ptracer22_min        =   1.7295382189366260-111
(PID.TID 0000.0001) %MON trcstat_ptracer22_mean       =   1.0394618089007700E-02
(PID.TID 0000.0001) %MON trcstat_ptracer22_sd         =   6.8865496394904899E-02
(PID.TID 0000.0001) %MON trcstat_ptracer22_del2       =   0.0000000000000000E+00
(PID.TID 0000.0001) %MON trcstat_ptracer23_max        =   5.4112721273504805E-01
(PID.TID 0000.0001) %MON trcstat_ptracer23_min        =   2.5974565247055251-111
(PID.TID 0000.0001) %MON trcstat_ptracer23_mean       =   1.0596682453562111E-02
(PID.TID 0000.0001) %MON trcstat_ptracer23_sd         =   7.0199018265109409E-02
(PID.TID 0000.0001) %MON trcstat_ptracer23_del2       =   0.0000000000000000E+00
(PID.TID 0000.0001) %MON trcstat_ptracer24_max        =   5.4915736289312722E-01
(PID.TID 0000.0001) %MON trcstat_ptracer24_min        =   4.4411317630701804-111
(PID.TID 0000.0001) %MON trcstat_ptracer24_mean       =   1.0761281954893762E-02
(PID.TID 0000.0001) %MON trcstat_ptracer24_sd         =   7.1284477102566635E-02
(PID.TID 0000.0001) %MON trcstat_ptracer24_del2       =   0.0000000000000000E+00
(PID.TID 0000.0001) %MON trcstat_ptracer25_max        =   5.5555037336347601E-01
(PID.TID 0000.0001) %MON trcstat_ptracer25_min        =   8.5039410665950827-111
(PID.TID 0000.0001) %MON trcstat_ptracer25_mean       =   1.0893543674376199E-02
(PID.TID 0000.0001) %MON trcstat_ptracer25_sd         =   7.2155820820720987E-02
(PID.TID 0000.0001) %MON trcstat_ptracer25_del2       =   0.0000000000000000E+00
(PID.TID 0000.0001) %MON trcstat_ptracer26_max        =   5.6052309299078162E-01
(PID.TID 0000.0001) %MON trcstat_ptracer26_min        =   1.7980076039537318-110
(PID.TID 0000.0001) %MON trcstat_ptracer26_mean       =   1.0998135424333946E-02
(PID.TID 0000.0001) %MON trcstat_ptracer26_sd         =   7.2843665706641469E-02
(PID.TID 0000.0001) %MON trcstat_ptracer26_del2       =   0.0000000000000000E+00
(PID.TID 0000.0001) %MON trcstat_ptracer27_max        =   5.6699918514407388E-01
(PID.TID 0000.0001) %MON trcstat_ptracer27_min        =   1.3250450758204913-109
(PID.TID 0000.0001) %MON trcstat_ptracer27_mean       =   1.1141218550331004E-02
(PID.TID 0000.0001) %MON trcstat_ptracer27_sd         =   7.3779551968567572E-02
(PID.TID 0000.0001) %MON trcstat_ptracer27_del2       =   0.0000000000000000E+00
(PID.TID 0000.0001) %MON trcstat_ptracer28_max        =   5.6653377675954342E-01
(PID.TID 0000.0001) %MON trcstat_ptracer28_min        =   6.1530103887102136-109
(PID.TID 0000.0001) %MON trcstat_ptracer28_mean       =   1.1141422061699486E-02
(PID.TID 0000.0001) %MON trcstat_ptracer28_sd         =   7.3773692822554929E-02
(PID.TID 0000.0001) %MON trcstat_ptracer28_del2       =   0.0000000000000000E+00
(PID.TID 0000.0001) %MON trcstat_ptracer29_max        =   5.6589709662214704E-01
(PID.TID 0000.0001) %MON trcstat_ptracer29_min        =   4.2899738647204153-108
(PID.TID 0000.0001) %MON trcstat_ptracer29_mean       =   1.1141547737256783E-02
(PID.TID 0000.0001) %MON trcstat_ptracer29_sd         =   7.3764994986309507E-02
(PID.TID 0000.0001) %MON trcstat_ptracer29_del2       =   0.0000000000000000E+00
(PID.TID 0000.0001) %MON trcstat_ptracer30_max        =   5.6506622067579626E-01
(PID.TID 0000.0001) %MON trcstat_ptracer30_min        =   3.7568311219448116-107
(PID.TID 0000.0001) %MON trcstat_ptracer30_mean       =   1.1141729798588629E-02
(PID.TID 0000.0001) %MON trcstat_ptracer30_sd         =   7.3753741942846854E-02
(PID.TID 0000.0001) %MON trcstat_ptracer30_del2       =   0.0000000000000000E+00
(PID.TID 0000.0001) %MON trcstat_ptracer31_max        =   5.6398128205035603E-01
(PID.TID 0000.0001) %MON trcstat_ptracer31_min        =   3.6396795160046840-106
(PID.TID 0000.0001) %MON trcstat_ptracer31_mean       =   1.1141984517347412E-02
(PID.TID 0000.0001) %MON trcstat_ptracer31_sd         =   7.3739146730328164E-02
(PID.TID 0000.0001) %MON trcstat_ptracer31_del2       =   0.0000000000000000E+00
(PID.TID 0000.0001) %MON trcstat_ptracer32_max        =   5.6256426030016715E-01
(PID.TID 0000.0001) %MON trcstat_ptracer32_min        =   3.7045725088513037-105
(PID.TID 0000.0001) %MON trcstat_ptracer32_mean       =   1.1142333215444021E-02
(PID.TID 0000.0001) %MON trcstat_ptracer32_sd         =   7.3720188753775104E-02
(PID.TID 0000.0001) %MON trcstat_ptracer32_del2       =   0.0000000000000000E+00
(PID.TID 0000.0001) %MON trcstat_ptracer33_max        =   1.0181841920586021E+00
(PID.TID 0000.0001) %MON trcstat_ptracer33_min        =   1.4236221307491980-111
(PID.TID 0000.0001) %MON trcstat_ptracer33_mean       =   1.9869337248871362E-02
(PID.TID 0000.0001) %MON trcstat_ptracer33_sd         =   1.3194418444143621E-01
(PID.TID 0000.0001) %MON trcstat_ptracer33_del2       =   0.0000000000000000E+00
(PID.TID 0000.0001) %MON trcstat_ptracer34_max        =   1.2835852721766641E-01
(PID.TID 0000.0001) %MON trcstat_ptracer34_min        =   2.4679883535618933-112
(PID.TID 0000.0001) %MON trcstat_ptracer34_mean       =   2.5244021541438295E-03
(PID.TID 0000.0001) %MON trcstat_ptracer34_sd         =   1.6718405650985924E-02
(PID.TID 0000.0001) %MON trcstat_ptracer34_del2       =   0.0000000000000000E+00
(PID.TID 0000.0001) %MON trcstat_ptracer35_max        =   1.1813308535210761E-01
(PID.TID 0000.0001) %MON trcstat_ptracer35_min        =   2.3540598647483274-112
(PID.TID 0000.0001) %MON trcstat_ptracer35_mean       =   2.3237901395873960E-03
(PID.TID 0000.0001) %MON trcstat_ptracer35_sd         =   1.5389415672851046E-02
(PID.TID 0000.0001) %MON trcstat_ptracer35_del2       =   0.0000000000000000E+00
(PID.TID 0000.0001) %MON trcstat_ptracer36_max        =   1.0913291522168247E-01
(PID.TID 0000.0001) %MON trcstat_ptracer36_min        =   2.3473952112553215-112
(PID.TID 0000.0001) %MON trcstat_ptracer36_mean       =   2.1469399461793801E-03
(PID.TID 0000.0001) %MON trcstat_ptracer36_sd         =   1.4218149695388912E-02
(PID.TID 0000.0001) %MON trcstat_ptracer36_del2       =   0.0000000000000000E+00
(PID.TID 0000.0001) %MON trcstat_ptracer37_max        =   1.0140397945099387E-01
(PID.TID 0000.0001) %MON trcstat_ptracer37_min        =   2.5201552290348886-112
(PID.TID 0000.0001) %MON trcstat_ptracer37_mean       =   1.9949968768287734E-03
(PID.TID 0000.0001) %MON trcstat_ptracer37_sd         =   1.3211969728219688E-02
(PID.TID 0000.0001) %MON trcstat_ptracer37_del2       =   0.0000000000000000E+00
(PID.TID 0000.0001) %MON trcstat_ptracer38_max        =   9.4908229156597315E-02
(PID.TID 0000.0001) %MON trcstat_ptracer38_min        =   3.0235484343772582-112
(PID.TID 0000.0001) %MON trcstat_ptracer38_mean       =   1.8672975212774452E-03
(PID.TID 0000.0001) %MON trcstat_ptracer38_sd         =   1.2366352097502432E-02
(PID.TID 0000.0001) %MON trcstat_ptracer38_del2       =   0.0000000000000000E+00
(PID.TID 0000.0001) %MON trcstat_ptracer39_max        =   8.9545568802826034E-02
(PID.TID 0000.0001) %MON trcstat_ptracer39_min        =   4.1820681985492001-112
(PID.TID 0000.0001) %MON trcstat_ptracer39_mean       =   1.7619411450686109E-03
(PID.TID 0000.0001) %MON trcstat_ptracer39_sd         =   1.1668631619163634E-02
(PID.TID 0000.0001) %MON trcstat_ptracer39_del2       =   0.0000000000000000E+00
(PID.TID 0000.0001) %MON trcstat_ptracer40_max        =   8.5185126644292050E-02
(PID.TID 0000.0001) %MON trcstat_ptracer40_min        =   6.7094528065200689-112
(PID.TID 0000.0001) %MON trcstat_ptracer40_mean       =   1.6764059883781633E-03
(PID.TID 0000.0001) %MON trcstat_ptracer40_sd         =   1.1102067005710627E-02
(PID.TID 0000.0001) %MON trcstat_ptracer40_del2       =   0.0000000000000000E+00
(PID.TID 0000.0001) %MON trcstat_ptracer41_max        =   8.1689980853158400E-02
(PID.TID 0000.0001) %MON trcstat_ptracer41_min        =   1.2247598883836170-111
(PID.TID 0000.0001) %MON trcstat_ptracer41_mean       =   1.6080191039985049E-03
(PID.TID 0000.0001) %MON trcstat_ptracer41_sd         =   1.0648939461618209E-02
(PID.TID 0000.0001) %MON trcstat_ptracer41_del2       =   0.0000000000000000E+00
(PID.TID 0000.0001) %MON trcstat_ptracer42_max        =   7.8926254250430664E-02
(PID.TID 0000.0001) %MON trcstat_ptracer42_min        =   2.4985019640378623-111
(PID.TID 0000.0001) %MON trcstat_ptracer42_mean       =   1.5541726133318891E-03
(PID.TID 0000.0001) %MON trcstat_ptracer42_sd         =   1.0291965654589372E-02
(PID.TID 0000.0001) %MON trcstat_ptracer42_del2       =   0.0000000000000000E+00
(PID.TID 0000.0001) %MON trcstat_ptracer43_max        =   7.5126120309775266E-02
(PID.TID 0000.0001) %MON trcstat_ptracer43_min        =   1.7648053256452639-110
(PID.TID 0000.0001) %MON trcstat_ptracer43_mean       =   1.4810839231400436E-03
(PID.TID 0000.0001) %MON trcstat_ptracer43_sd         =   9.8066682454582589E-03
(PID.TID 0000.0001) %MON trcstat_ptracer43_del2       =   0.0000000000000000E+00
(PID.TID 0000.0001) %MON trcstat_ptracer44_max        =   7.5052386571317742E-02
(PID.TID 0000.0001) %MON trcstat_ptracer44_min        =   8.1995776472357253-110
(PID.TID 0000.0001) %MON trcstat_ptracer44_mean       =   1.4810491400768350E-03
(PID.TID 0000.0001) %MON trcstat_ptracer44_sd         =   9.8054415257581642E-03
(PID.TID 0000.0001) %MON trcstat_ptracer44_del2       =   0.0000000000000000E+00
(PID.TID 0000.0001) %MON trcstat_ptracer45_max        =   7.4969253735463134E-02
(PID.TID 0000.0001) %MON trcstat_ptracer45_min        =   5.7188771235445052-109
(PID.TID 0000.0001) %MON trcstat_ptracer45_mean       =   1.4810761909979976E-03
(PID.TID 0000.0001) %MON trcstat_ptracer45_sd         =   9.8043636204397117E-03
(PID.TID 0000.0001) %MON trcstat_ptracer45_del2       =   0.0000000000000000E+00
(PID.TID 0000.0001) %MON trcstat_ptracer46_max        =   7.4860390902418361E-02
(PID.TID 0000.0001) %MON trcstat_ptracer46_min        =   5.0088084130478921-108
(PID.TID 0000.0001) %MON trcstat_ptracer46_mean       =   1.4811112913929053E-03
(PID.TID 0000.0001) %MON trcstat_ptracer46_sd         =   9.8029515173336038E-03
(PID.TID 0000.0001) %MON trcstat_ptracer46_del2       =   0.0000000000000000E+00
(PID.TID 0000.0001) %MON trcstat_ptracer47_max        =   7.4717881814975809E-02
(PID.TID 0000.0001) %MON trcstat_ptracer47_min        =   4.8528058273414952-107
(PID.TID 0000.0001) %MON trcstat_ptracer47_mean       =   1.4811568770122076E-03
(PID.TID 0000.0001) %MON trcstat_ptracer47_sd         =   9.8011030181794252E-03
(PID.TID 0000.0001) %MON trcstat_ptracer47_del2       =   0.0000000000000000E+00
(PID.TID 0000.0001) %MON trcstat_ptracer48_max        =   7.4531402507842515E-02
(PID.TID 0000.0001) %MON trcstat_ptracer48_min        =   4.9393861129731429-106
(PID.TID 0000.0001) %MON trcstat_ptracer48_mean       =   1.4812160885973133E-03
(PID.TID 0000.0001) %MON trcstat_ptracer48_sd         =   9.7986852398612660E-03
(PID.TID 0000.0001) %MON trcstat_ptracer48_del2       =   0.0000000000000000E+00
(PID.TID 0000.0001) %MON trcstat_ptracer49_max        =   1.3890566142593599E-01
(PID.TID 0000.0001) %MON trcstat_ptracer49_min        =   1.9673201313128522-112
(PID.TID 0000.0001) %MON trcstat_ptracer49_mean       =   2.7120722473939090E-03
(PID.TID 0000.0001) %MON trcstat_ptracer49_sd         =   1.8007285483944379E-02
(PID.TID 0000.0001) %MON trcstat_ptracer49_del2       =   0.0000000000000000E+00
(PID.TID 0000.0001) %MON trcstat_ptracer50_max        =   7.8217847038100145E-06
(PID.TID 0000.0001) %MON trcstat_ptracer50_min        =   1.3505256621357722-116
(PID.TID 0000.0001) %MON trcstat_ptracer50_mean       =   1.5369866141253132E-07
(PID.TID 0000.0001) %MON trcstat_ptracer50_sd         =   1.0182097212651148E-06
(PID.TID 0000.0001) %MON trcstat_ptracer50_del2       =   0.0000000000000000E+00
(PID.TID 0000.0001) %MON trcstat_ptracer51_max        =   7.4783498986435345E-06
(PID.TID 0000.0001) %MON trcstat_ptracer51_min        =   1.3697469456917249-116
(PID.TID 0000.0001) %MON trcstat_ptracer51_mean       =   1.4698232292809108E-07
(PID.TID 0000.0001) %MON trcstat_ptracer51_sd         =   9.7366722950758504E-07
(PID.TID 0000.0001) %MON trcstat_ptracer51_del2       =   0.0000000000000000E+00
(PID.TID 0000.0001) %MON trcstat_ptracer52_max        =   7.1760883847263883E-06
(PID.TID 0000.0001) %MON trcstat_ptracer52_min        =   1.4491767608398300-116
(PID.TID 0000.0001) %MON trcstat_ptracer52_mean       =   1.4107090992492429E-07
(PID.TID 0000.0001) %MON trcstat_ptracer52_sd         =   9.3446473042423939E-07
(PID.TID 0000.0001) %MON trcstat_ptracer52_del2       =   0.0000000000000000E+00
(PID.TID 0000.0001) %MON trcstat_ptracer53_max        =   6.9136100152196210E-06
(PID.TID 0000.0001) %MON trcstat_ptracer53_min        =   1.6441601555823825-116
(PID.TID 0000.0001) %MON trcstat_ptracer53_mean       =   1.3593886936652967E-07
(PID.TID 0000.0001) %MON trcstat_ptracer53_sd         =   9.0043112833446677E-07
(PID.TID 0000.0001) %MON trcstat_ptracer53_del2       =   0.0000000000000000E+00
(PID.TID 0000.0001) %MON trcstat_ptracer54_max        =   6.6881922653790972E-06
(PID.TID 0000.0001) %MON trcstat_ptracer54_min        =   2.0715282766340006-116
(PID.TID 0000.0001) %MON trcstat_ptracer54_mean       =   1.3153480085339587E-07
(PID.TID 0000.0001) %MON trcstat_ptracer54_sd         =   8.7122375047820652E-07
(PID.TID 0000.0001) %MON trcstat_ptracer54_del2       =   0.0000000000000000E+00
(PID.TID 0000.0001) %MON trcstat_ptracer55_max        =   6.4963193329157495E-06
(PID.TID 0000.0001) %MON trcstat_ptracer55_min        =   2.9826513945732566-116
(PID.TID 0000.0001) %MON trcstat_ptracer55_mean       =   1.2779188741151296E-07
(PID.TID 0000.0001) %MON trcstat_ptracer55_sd         =   8.4639774957777054E-07
(PID.TID 0000.0001) %MON trcstat_ptracer55_del2       =   0.0000000000000000E+00
(PID.TID 0000.0001) %MON trcstat_ptracer56_max        =   6.3342335019650913E-06
(PID.TID 0000.0001) %MON trcstat_ptracer56_min        =   4.9315767480212290-116
(PID.TID 0000.0001) %MON trcstat_ptracer56_mean       =   1.2463787396616164E-07
(PID.TID 0000.0001) %MON trcstat_ptracer56_sd         =   8.2547248063149249E-07
(PID.TID 0000.0001) %MON trcstat_ptracer56_del2       =   0.0000000000000000E+00
(PID.TID 0000.0001) %MON trcstat_ptracer57_max        =   6.1980814283291307E-06
(PID.TID 0000.0001) %MON trcstat_ptracer57_min        =   9.1939548815427038-116
(PID.TID 0000.0001) %MON trcstat_ptracer57_mean       =   1.2199961173308523E-07
(PID.TID 0000.0001) %MON trcstat_ptracer57_sd         =   8.0796104777982965E-07
(PID.TID 0000.0001) %MON trcstat_ptracer57_del2       =   0.0000000000000000E+00
(PID.TID 0000.0001) %MON trcstat_ptracer58_max        =   6.0842015771299063E-06
(PID.TID 0000.0001) %MON trcstat_ptracer58_min        =   1.9016281498875365-115
(PID.TID 0000.0001) %MON trcstat_ptracer58_mean       =   1.1980788375489393E-07
(PID.TID 0000.0001) %MON trcstat_ptracer58_sd         =   7.9340245713901538E-07
(PID.TID 0000.0001) %MON trcstat_ptracer58_del2       =   0.0000000000000000E+00
(PID.TID 0000.0001) %MON trcstat_ptracer59_max        =   5.9099731471286214E-06
(PID.TID 0000.0001) %MON trcstat_ptracer59_min        =   1.3511669130885920-114
(PID.TID 0000.0001) %MON trcstat_ptracer59_mean       =   1.1651751650845294E-07
(PID.TID 0000.0001) %MON trcstat_ptracer59_sd         =   7.7149869239583688E-07
(PID.TID 0000.0001) %MON trcstat_ptracer59_del2       =   0.0000000000000000E+00
(PID.TID 0000.0001) %MON trcstat_ptracer60_max        =   5.8464615225728668E-06
(PID.TID 0000.0001) %MON trcstat_ptracer60_min        =   6.2055275719517667-114
(PID.TID 0000.0001) %MON trcstat_ptracer60_mean       =   1.1536558046771452E-07
(PID.TID 0000.0001) %MON trcstat_ptracer60_sd         =   7.6379538345665789E-07
(PID.TID 0000.0001) %MON trcstat_ptracer60_del2       =   0.0000000000000000E+00
(PID.TID 0000.0001) %MON trcstat_ptracer61_max        =   5.7926668582601013E-06
(PID.TID 0000.0001) %MON trcstat_ptracer61_min        =   4.3031784646331096-113
(PID.TID 0000.0001) %MON trcstat_ptracer61_mean       =   1.1443377008849106E-07
(PID.TID 0000.0001) %MON trcstat_ptracer61_sd         =   7.5752814862163037E-07
(PID.TID 0000.0001) %MON trcstat_ptracer61_del2       =   0.0000000000000000E+00
(PID.TID 0000.0001) %MON trcstat_ptracer62_max        =   5.7462537911075428E-06
(PID.TID 0000.0001) %MON trcstat_ptracer62_min        =   3.7614464075500775-112
(PID.TID 0000.0001) %MON trcstat_ptracer62_mean       =   1.1368533871036845E-07
(PID.TID 0000.0001) %MON trcstat_ptracer62_sd         =   7.5244673082277465E-07
(PID.TID 0000.0001) %MON trcstat_ptracer62_del2       =   0.0000000000000000E+00
(PID.TID 0000.0001) %MON trcstat_ptracer63_max        =   5.7050381193220058E-06
(PID.TID 0000.0001) %MON trcstat_ptracer63_min        =   3.6418373546674599-111
(PID.TID 0000.0001) %MON trcstat_ptracer63_mean       =   1.1308922056744346E-07
(PID.TID 0000.0001) %MON trcstat_ptracer63_sd         =   7.4833646584823661E-07
(PID.TID 0000.0001) %MON trcstat_ptracer63_del2       =   0.0000000000000000E+00
(PID.TID 0000.0001) %MON trcstat_ptracer64_max        =   5.6668927916013423E-06
(PID.TID 0000.0001) %MON trcstat_ptracer64_min        =   3.7057594395601100-110
(PID.TID 0000.0001) %MON trcstat_ptracer64_mean       =   1.1261907596310636E-07
(PID.TID 0000.0001) %MON trcstat_ptracer64_sd         =   7.4501134268763842E-07
(PID.TID 0000.0001) %MON trcstat_ptracer64_del2       =   0.0000000000000000E+00
(PID.TID 0000.0001) %MON trcstat_ptracer65_max        =   2.1352389702577572E-05
(PID.TID 0000.0001) %MON trcstat_ptracer65_min        =   2.5950452102050574-116
(PID.TID 0000.0001) %MON trcstat_ptracer65_mean       =   4.1549227860587820E-07
(PID.TID 0000.0001) %MON trcstat_ptracer65_sd         =   2.7623288807499511E-06
(PID.TID 0000.0001) %MON trcstat_ptracer65_del2       =   0.0000000000000000E+00
(PID.TID 0000.0001) %MON trcstat_ptracer66_max        =   1.9946455155090975E-01
(PID.TID 0000.0001) %MON trcstat_ptracer66_min        =   3.1737841308790876-112
(PID.TID 0000.0001) %MON trcstat_ptracer66_mean       =   3.7473289486353078E-03
(PID.TID 0000.0001) %MON trcstat_ptracer66_sd         =   2.5134894685745115E-02
(PID.TID 0000.0001) %MON trcstat_ptracer66_del2       =   0.0000000000000000E+00
(PID.TID 0000.0001) %MON trcstat_ptracer67_max        =   1.7790814179147330E-01
(PID.TID 0000.0001) %MON trcstat_ptracer67_min        =   2.9843874015101820-112
(PID.TID 0000.0001) %MON trcstat_ptracer67_mean       =   3.3461938749081606E-03
(PID.TID 0000.0001) %MON trcstat_ptracer67_sd         =   2.2441147068723799E-02
(PID.TID 0000.0001) %MON trcstat_ptracer67_del2       =   0.0000000000000000E+00
(PID.TID 0000.0001) %MON trcstat_ptracer68_max        =   1.5955648689393903E-01
(PID.TID 0000.0001) %MON trcstat_ptracer68_min        =   2.9430930631963927-112
(PID.TID 0000.0001) %MON trcstat_ptracer68_mean       =   3.0018973918032547E-03
(PID.TID 0000.0001) %MON trcstat_ptracer68_sd         =   2.0119116398691777E-02
(PID.TID 0000.0001) %MON trcstat_ptracer68_del2       =   0.0000000000000000E+00
(PID.TID 0000.0001) %MON trcstat_ptracer69_max        =   1.4261008109439682E-01
(PID.TID 0000.0001) %MON trcstat_ptracer69_min        =   3.1175527791517445-112
(PID.TID 0000.0001) %MON trcstat_ptracer69_mean       =   2.6944844231890979E-03
(PID.TID 0000.0001) %MON trcstat_ptracer69_sd         =   1.8036113380386094E-02
(PID.TID 0000.0001) %MON trcstat_ptracer69_del2       =   0.0000000000000000E+00
(PID.TID 0000.0001) %MON trcstat_ptracer70_max        =   1.2829691324634582E-01
(PID.TID 0000.0001) %MON trcstat_ptracer70_min        =   3.6931128101301159-112
(PID.TID 0000.0001) %MON trcstat_ptracer70_mean       =   2.4371145055820764E-03
(PID.TID 0000.0001) %MON trcstat_ptracer70_sd         =   1.6287314788008791E-02
(PID.TID 0000.0001) %MON trcstat_ptracer70_del2       =   0.0000000000000000E+00
(PID.TID 0000.0001) %MON trcstat_ptracer71_max        =   1.1675120697301343E-01
(PID.TID 0000.0001) %MON trcstat_ptracer71_min        =   5.0445925518417502-112
(PID.TID 0000.0001) %MON trcstat_ptracer71_mean       =   2.2287516905245622E-03
(PID.TID 0000.0001) %MON trcstat_ptracer71_sd         =   1.4869291818439422E-02
(PID.TID 0000.0001) %MON trcstat_ptracer71_del2       =   0.0000000000000000E+00
(PID.TID 0000.0001) %MON trcstat_ptracer72_max        =   1.0699481344695735E-01
(PID.TID 0000.0001) %MON trcstat_ptracer72_min        =   7.9676798132588229-112
(PID.TID 0000.0001) %MON trcstat_ptracer72_mean       =   2.0566066024102561E-03
(PID.TID 0000.0001) %MON trcstat_ptracer72_sd         =   1.3695920649827968E-02
(PID.TID 0000.0001) %MON trcstat_ptracer72_del2       =   0.0000000000000000E+00
(PID.TID 0000.0001) %MON trcstat_ptracer73_max        =   9.9172129265353778E-02
(PID.TID 0000.0001) %MON trcstat_ptracer73_min        =   1.4305507322188775-111
(PID.TID 0000.0001) %MON trcstat_ptracer73_mean       =   1.9194840885716847E-03
(PID.TID 0000.0001) %MON trcstat_ptracer73_sd         =   1.2760725996402138E-02
(PID.TID 0000.0001) %MON trcstat_ptracer73_del2       =   0.0000000000000000E+00
(PID.TID 0000.0001) %MON trcstat_ptracer74_max        =   9.2991875346094641E-02
(PID.TID 0000.0001) %MON trcstat_ptracer74_min        =   2.8724589714783535-111
(PID.TID 0000.0001) %MON trcstat_ptracer74_mean       =   1.8118638355386252E-03
(PID.TID 0000.0001) %MON trcstat_ptracer74_sd         =   1.2026555240823130E-02
(PID.TID 0000.0001) %MON trcstat_ptracer74_del2       =   0.0000000000000000E+00
(PID.TID 0000.0001) %MON trcstat_ptracer75_max        =   8.4531817486174929E-02
(PID.TID 0000.0001) %MON trcstat_ptracer75_min        =   1.9854234689706425-110
(PID.TID 0000.0001) %MON trcstat_ptracer75_mean       =   1.6663033363238829E-03
(PID.TID 0000.0001) %MON trcstat_ptracer75_sd         =   1.1033109407444206E-02
(PID.TID 0000.0001) %MON trcstat_ptracer75_del2       =   0.0000000000000000E+00
(PID.TID 0000.0001) %MON trcstat_ptracer76_max        =   8.4434145978097480E-02
(PID.TID 0000.0001) %MON trcstat_ptracer76_min        =   9.2245479145099770-110
(PID.TID 0000.0001) %MON trcstat_ptracer76_mean       =   1.6661844480475613E-03
(PID.TID 0000.0001) %MON trcstat_ptracer76_sd         =   1.1031149294351179E-02
(PID.TID 0000.0001) %MON trcstat_ptracer76_del2       =   0.0000000000000000E+00
(PID.TID 0000.0001) %MON trcstat_ptracer77_max        =   8.4340621303949329E-02
(PID.TID 0000.0001) %MON trcstat_ptracer77_min        =   6.4337528483696872-109
(PID.TID 0000.0001) %MON trcstat_ptracer77_mean       =   1.6662148804099481E-03
(PID.TID 0000.0001) %MON trcstat_ptracer77_sd         =   1.1029936647836301E-02
(PID.TID 0000.0001) %MON trcstat_ptracer77_del2       =   0.0000000000000000E+00
(PID.TID 0000.0001) %MON trcstat_ptracer78_max        =   8.4218150310596429E-02
(PID.TID 0000.0001) %MON trcstat_ptracer78_min        =   5.6349235519877586-108
(PID.TID 0000.0001) %MON trcstat_ptracer78_mean       =   1.6662543684529396E-03
(PID.TID 0000.0001) %MON trcstat_ptracer78_sd         =   1.1028348027870371E-02
(PID.TID 0000.0001) %MON trcstat_ptracer78_del2       =   0.0000000000000000E+00
(PID.TID 0000.0001) %MON trcstat_ptracer79_max        =   8.4057827186415787E-02
(PID.TID 0000.0001) %MON trcstat_ptracer79_min        =   5.4594202043096938-107
(PID.TID 0000.0001) %MON trcstat_ptracer79_mean       =   1.6663056524028651E-03
(PID.TID 0000.0001) %MON trcstat_ptracer79_sd         =   1.1026268461123014E-02
(PID.TID 0000.0001) %MON trcstat_ptracer79_del2       =   0.0000000000000000E+00
(PID.TID 0000.0001) %MON trcstat_ptracer80_max        =   8.3848037441416473E-02
(PID.TID 0000.0001) %MON trcstat_ptracer80_min        =   5.5568232691529550-106
(PID.TID 0000.0001) %MON trcstat_ptracer80_mean       =   1.6663722656026427E-03
(PID.TID 0000.0001) %MON trcstat_ptracer80_sd         =   1.1023548453715067E-02
(PID.TID 0000.0001) %MON trcstat_ptracer80_del2       =   0.0000000000000000E+00
(PID.TID 0000.0001) // =======================================================
(PID.TID 0000.0001) // End MONITOR ptracers field statistics
(PID.TID 0000.0001) // =======================================================
 Computing Diagnostic #    156  TRAC01       Counter:       1   Parms: SMR     MR      
 Computing Diagnostic #    169  TRAC02       Counter:       1   Parms: SMR     MR      
 Computing Diagnostic #    182  TRAC03       Counter:       1   Parms: SMR     MR      
 Computing Diagnostic #    195  TRAC04       Counter:       1   Parms: SMR     MR      
 Computing Diagnostic #    208  TRAC05       Counter:       1   Parms: SMR     MR      
 Computing Diagnostic #    221  TRAC06       Counter:       1   Parms: SMR     MR      
 Computing Diagnostic #    234  TRAC07       Counter:       1   Parms: SMR     MR      
 Computing Diagnostic #    247  TRAC08       Counter:       1   Parms: SMR     MR      
 Computing Diagnostic #    260  TRAC09       Counter:       1   Parms: SMR     MR      
 Computing Diagnostic #    273  TRAC10       Counter:       1   Parms: SMR     MR      
 Computing Diagnostic #    286  TRAC11       Counter:       1   Parms: SMR     MR      
 Computing Diagnostic #    299  TRAC12       Counter:       1   Parms: SMR     MR      
 Computing Diagnostic #    312  TRAC13       Counter:       1   Parms: SMR     MR      
 Computing Diagnostic #    325  TRAC14       Counter:       1   Parms: SMR     MR      
 Computing Diagnostic #    338  TRAC15       Counter:       1   Parms: SMR     MR      
 Computing Diagnostic #    351  TRAC16       Counter:       1   Parms: SMR     MR      
 Computing Diagnostic #    364  TRAC17       Counter:       1   Parms: SMR     MR      
 Computing Diagnostic #    377  TRAC18       Counter:       1   Parms: SMR     MR      
 Computing Diagnostic #    390  TRAC19       Counter:       1   Parms: SMR     MR      
 Computing Diagnostic #    403  TRAC20       Counter:       1   Parms: SMR     MR      
 Computing Diagnostic #    416  TRAC21       Counter:       1   Parms: SMR     MR      
 Computing Diagnostic #    429  TRAC22       Counter:       1   Parms: SMR     MR      
 Computing Diagnostic #    442  TRAC23       Counter:       1   Parms: SMR     MR      
 Computing Diagnostic #    455  TRAC24       Counter:       1   Parms: SMR     MR      
 Computing Diagnostic #    468  TRAC25       Counter:       1   Parms: SMR     MR      
 Computing Diagnostic #    481  TRAC26       Counter:       1   Parms: SMR     MR      
 Computing Diagnostic #    494  TRAC27       Counter:       1   Parms: SMR     MR      
 Computing Diagnostic #    507  TRAC28       Counter:       1   Parms: SMR     MR      
 Computing Diagnostic #    520  TRAC29       Counter:       1   Parms: SMR     MR      
 Computing Diagnostic #    533  TRAC30       Counter:       1   Parms: SMR     MR      
 Computing Diagnostic #    546  TRAC31       Counter:       1   Parms: SMR     MR      
 Computing Diagnostic #    559  TRAC32       Counter:       1   Parms: SMR     MR      
 Computing Diagnostic #    572  TRAC33       Counter:       1   Parms: SMR     MR      
 Computing Diagnostic #    585  TRAC34       Counter:       1   Parms: SMR     MR      
 Computing Diagnostic #    598  TRAC35       Counter:       1   Parms: SMR     MR      
 Computing Diagnostic #    611  TRAC36       Counter:       1   Parms: SMR     MR      
 Computing Diagnostic #    624  TRAC37       Counter:       1   Parms: SMR     MR      
 Computing Diagnostic #    637  TRAC38       Counter:       1   Parms: SMR     MR      
 Computing Diagnostic #    650  TRAC39       Counter:       1   Parms: SMR     MR      
 Computing Diagnostic #    663  TRAC40       Counter:       1   Parms: SMR     MR      
 Computing Diagnostic #    676  TRAC41       Counter:       1   Parms: SMR     MR      
 Computing Diagnostic #    689  TRAC42       Counter:       1   Parms: SMR     MR      
 Computing Diagnostic #    702  TRAC43       Counter:       1   Parms: SMR     MR      
 Computing Diagnostic #    715  TRAC44       Counter:       1   Parms: SMR     MR      
 Computing Diagnostic #    728  TRAC45       Counter:       1   Parms: SMR     MR      
 Computing Diagnostic #    741  TRAC46       Counter:       1   Parms: SMR     MR      
 Computing Diagnostic #    754  TRAC47       Counter:       1   Parms: SMR     MR      
 Computing Diagnostic #    767  TRAC48       Counter:       1   Parms: SMR     MR      
 Computing Diagnostic #    780  TRAC49       Counter:       1   Parms: SMR     MR      
 Computing Diagnostic #    793  TRAC50       Counter:       1   Parms: SMR     MR      
 Computing Diagnostic #    806  TRAC51       Counter:       1   Parms: SMR     MR      
 Computing Diagnostic #    819  TRAC52       Counter:       1   Parms: SMR     MR      
 Computing Diagnostic #    832  TRAC53       Counter:       1   Parms: SMR     MR      
 Computing Diagnostic #    845  TRAC54       Counter:       1   Parms: SMR     MR      
 Computing Diagnostic #    858  TRAC55       Counter:       1   Parms: SMR     MR      
 Computing Diagnostic #    871  TRAC56       Counter:       1   Parms: SMR     MR      
 Computing Diagnostic #    884  TRAC57       Counter:       1   Parms: SMR     MR      
 Computing Diagnostic #    897  TRAC58       Counter:       1   Parms: SMR     MR      
 Computing Diagnostic #    910  TRAC59       Counter:       1   Parms: SMR     MR      
 Computing Diagnostic #    923  TRAC60       Counter:       1   Parms: SMR     MR      
 Computing Diagnostic #    936  TRAC61       Counter:       1   Parms: SMR     MR      
 Computing Diagnostic #    949  TRAC62       Counter:       1   Parms: SMR     MR      
 Computing Diagnostic #    962  TRAC63       Counter:       1   Parms: SMR     MR      
 Computing Diagnostic #    975  TRAC64       Counter:       1   Parms: SMR     MR      
 Computing Diagnostic #    988  TRAC65       Counter:       1   Parms: SMR     MR      
 Computing Diagnostic #   1001  TRAC66       Counter:       1   Parms: SMR     MR      
 Computing Diagnostic #   1014  TRAC67       Counter:       1   Parms: SMR     MR      
 Computing Diagnostic #   1027  TRAC68       Counter:       1   Parms: SMR     MR      
 Computing Diagnostic #   1040  TRAC69       Counter:       1   Parms: SMR     MR      
 Computing Diagnostic #   1053  TRAC70       Counter:       1   Parms: SMR     MR      
 Computing Diagnostic #   1066  TRAC71       Counter:       1   Parms: SMR     MR      
 Computing Diagnostic #   1079  TRAC72       Counter:       1   Parms: SMR     MR      
 Computing Diagnostic #   1092  TRAC73       Counter:       1   Parms: SMR     MR      
 Computing Diagnostic #   1105  TRAC74       Counter:       1   Parms: SMR     MR      
 Computing Diagnostic #   1118  TRAC75       Counter:       1   Parms: SMR     MR      
 Computing Diagnostic #   1131  TRAC76       Counter:       1   Parms: SMR     MR      
 Computing Diagnostic #   1144  TRAC77       Counter:       1   Parms: SMR     MR      
 Computing Diagnostic #   1157  TRAC78       Counter:       1   Parms: SMR     MR      
 Computing Diagnostic #   1170  TRAC79       Counter:       1   Parms: SMR     MR      
 Computing Diagnostic #   1183  TRAC80       Counter:       1   Parms: SMR     MR      
 Computing Diagnostic #   1201  PAR01        Counter:       3   Parms: SM P    MR      
 Computing Diagnostic #   1200  PARF         Counter:       3   Parms: SM P    MR      
 Computing Diagnostic #   1197  atten        Counter:       3   Parms: SM P    MR      
 Computing Diagnostic #   1199  surfPAR      Counter:       3   Parms: SM P    MR      
 Computing Diagnostic #   1198  exfPAR       Counter:       1   Parms: SM P    MR      
(PID.TID 0000.0001) // =======================================================
(PID.TID 0000.0001) // Begin MONITOR EXF statistics
(PID.TID 0000.0001) // =======================================================
(PID.TID 0000.0001) %MON exf_tsnumber                 =                     3
(PID.TID 0000.0001) %MON exf_time_sec                 =   3.2400000000000000E+04
(PID.TID 0000.0001) %MON exf_ustress_max              =   0.0000000000000000E+00
(PID.TID 0000.0001) %MON exf_ustress_min              =   0.0000000000000000E+00
(PID.TID 0000.0001) %MON exf_ustress_mean             =   0.0000000000000000E+00
(PID.TID 0000.0001) %MON exf_ustress_sd               =   0.0000000000000000E+00
(PID.TID 0000.0001) %MON exf_ustress_del2             =   0.0000000000000000E+00
(PID.TID 0000.0001) %MON exf_vstress_max              =   0.0000000000000000E+00
(PID.TID 0000.0001) %MON exf_vstress_min              =   0.0000000000000000E+00
(PID.TID 0000.0001) %MON exf_vstress_mean             =   0.0000000000000000E+00
(PID.TID 0000.0001) %MON exf_vstress_sd               =   0.0000000000000000E+00
(PID.TID 0000.0001) %MON exf_vstress_del2             =   0.0000000000000000E+00
(PID.TID 0000.0001) %MON exf_hflux_max                =   0.0000000000000000E+00
(PID.TID 0000.0001) %MON exf_hflux_min                =   0.0000000000000000E+00
(PID.TID 0000.0001) %MON exf_hflux_mean               =   0.0000000000000000E+00
(PID.TID 0000.0001) %MON exf_hflux_sd                 =   0.0000000000000000E+00
(PID.TID 0000.0001) %MON exf_hflux_del2               =   0.0000000000000000E+00
(PID.TID 0000.0001) %MON exf_sflux_max                =   0.0000000000000000E+00
(PID.TID 0000.0001) %MON exf_sflux_min                =   0.0000000000000000E+00
(PID.TID 0000.0001) %MON exf_sflux_mean               =   0.0000000000000000E+00
(PID.TID 0000.0001) %MON exf_sflux_sd                 =   0.0000000000000000E+00
(PID.TID 0000.0001) %MON exf_sflux_del2               =   0.0000000000000000E+00
(PID.TID 0000.0001) %MON exf_uwind_max                =   0.0000000000000000E+00
(PID.TID 0000.0001) %MON exf_uwind_min                =   0.0000000000000000E+00
(PID.TID 0000.0001) %MON exf_uwind_mean               =   0.0000000000000000E+00
(PID.TID 0000.0001) %MON exf_uwind_sd                 =   0.0000000000000000E+00
(PID.TID 0000.0001) %MON exf_uwind_del2               =   0.0000000000000000E+00
(PID.TID 0000.0001) %MON exf_vwind_max                =   0.0000000000000000E+00
(PID.TID 0000.0001) %MON exf_vwind_min                =   0.0000000000000000E+00
(PID.TID 0000.0001) %MON exf_vwind_mean               =   0.0000000000000000E+00
(PID.TID 0000.0001) %MON exf_vwind_sd                 =   0.0000000000000000E+00
(PID.TID 0000.0001) %MON exf_vwind_del2               =   0.0000000000000000E+00
(PID.TID 0000.0001) %MON exf_wspeed_max               =   0.0000000000000000E+00
(PID.TID 0000.0001) %MON exf_wspeed_min               =   0.0000000000000000E+00
(PID.TID 0000.0001) %MON exf_wspeed_mean              =   0.0000000000000000E+00
(PID.TID 0000.0001) %MON exf_wspeed_sd                =   0.0000000000000000E+00
(PID.TID 0000.0001) %MON exf_wspeed_del2              =   0.0000000000000000E+00
(PID.TID 0000.0001) %MON exf_evap_max                 =   0.0000000000000000E+00
(PID.TID 0000.0001) %MON exf_evap_min                 =   0.0000000000000000E+00
(PID.TID 0000.0001) %MON exf_evap_mean                =   0.0000000000000000E+00
(PID.TID 0000.0001) %MON exf_evap_sd                  =   0.0000000000000000E+00
(PID.TID 0000.0001) %MON exf_evap_del2                =   0.0000000000000000E+00
(PID.TID 0000.0001) // =======================================================
(PID.TID 0000.0001) // End MONITOR EXF statistics
(PID.TID 0000.0001) // =======================================================
(PID.TID 0000.0001) totgC   -1.5182489005331287E-09  -3.6850909083440152E-23
(PID.TID 0000.0001) totgN   -3.4461322684364859E-10  -8.3644458342152620E-24
(PID.TID 0000.0001) totgP    0.0000000000000000E+00   0.0000000000000000E+00
(PID.TID 0000.0001) totgFe  -2.8080244781462884E+01  -6.8156317921196752E-13
(PID.TID 0000.0001) totgSi   0.0000000000000000E+00   0.0000000000000000E+00
 fe   8.4552097349915617E-004
(PID.TID 0000.0001) totgC    2.8301431307347808E-09   6.8693181445550708E-23
(PID.TID 0000.0001) totgN   -9.4615870693814941E-11  -2.2965146541940295E-24
(PID.TID 0000.0001) totgP    0.0000000000000000E+00   0.0000000000000000E+00
(PID.TID 0000.0001) totgFe  -2.8073764344665804E+01  -6.8140588617052595E-13
(PID.TID 0000.0001) totgSi   0.0000000000000000E+00   0.0000000000000000E+00
 fe   8.4480963730697225E-004
(PID.TID 0000.0001) totgC   -4.0882917994403134E-09  -9.9230942538371701E-23
(PID.TID 0000.0001) totgN   -1.2603607046912657E-09  -3.0591451589136146E-23
(PID.TID 0000.0001) totgP    0.0000000000000000E+00   0.0000000000000000E+00
(PID.TID 0000.0001) totgFe  -2.8067605876739556E+01  -6.8125640795153053E-13
(PID.TID 0000.0001) totgSi   0.0000000000000000E+00   0.0000000000000000E+00
 fe   8.4414116432750253E-004
(PID.TID 0000.0001) // =======================================================
(PID.TID 0000.0001) // Begin MONITOR dynamic field statistics
(PID.TID 0000.0001) // =======================================================
(PID.TID 0000.0001) %MON time_tsnumber                =                     4
(PID.TID 0000.0001) %MON time_secondsf                =   4.3200000000000000E+04
(PID.TID 0000.0001) %MON dynstat_eta_max              =   0.0000000000000000E+00
(PID.TID 0000.0001) %MON dynstat_eta_min              =   0.0000000000000000E+00
(PID.TID 0000.0001) %MON dynstat_eta_mean             =   0.0000000000000000E+00
(PID.TID 0000.0001) %MON dynstat_eta_sd               =   0.0000000000000000E+00
(PID.TID 0000.0001) %MON dynstat_eta_del2             =   0.0000000000000000E+00
(PID.TID 0000.0001) %MON dynstat_uvel_max             =   0.0000000000000000E+00
(PID.TID 0000.0001) %MON dynstat_uvel_min             =   0.0000000000000000E+00
(PID.TID 0000.0001) %MON dynstat_uvel_mean            =   0.0000000000000000E+00
(PID.TID 0000.0001) %MON dynstat_uvel_sd              =   0.0000000000000000E+00
(PID.TID 0000.0001) %MON dynstat_uvel_del2            =   0.0000000000000000E+00
(PID.TID 0000.0001) %MON dynstat_vvel_max             =   0.0000000000000000E+00
(PID.TID 0000.0001) %MON dynstat_vvel_min             =   0.0000000000000000E+00
(PID.TID 0000.0001) %MON dynstat_vvel_mean            =   0.0000000000000000E+00
(PID.TID 0000.0001) %MON dynstat_vvel_sd              =   0.0000000000000000E+00
(PID.TID 0000.0001) %MON dynstat_vvel_del2            =   0.0000000000000000E+00
(PID.TID 0000.0001) %MON dynstat_wvel_max             =   0.0000000000000000E+00
(PID.TID 0000.0001) %MON dynstat_wvel_min             =   0.0000000000000000E+00
(PID.TID 0000.0001) %MON dynstat_wvel_mean            =   0.0000000000000000E+00
(PID.TID 0000.0001) %MON dynstat_wvel_sd              =   0.0000000000000000E+00
(PID.TID 0000.0001) %MON dynstat_wvel_del2            =   0.0000000000000000E+00
(PID.TID 0000.0001) %MON dynstat_theta_max            =   6.4955094188051961E+00
(PID.TID 0000.0001) %MON dynstat_theta_min            =  -9.3886553567889841E-01
(PID.TID 0000.0001) %MON dynstat_theta_mean           =   1.5612872667614053E-01
(PID.TID 0000.0001) %MON dynstat_theta_sd             =   2.0856205097385829E+00
(PID.TID 0000.0001) %MON dynstat_theta_del2           =   0.0000000000000000E+00
(PID.TID 0000.0001) %MON dynstat_salt_max             =   3.5000000000000000E+01
(PID.TID 0000.0001) %MON dynstat_salt_min             =   3.5000000000000000E+01
(PID.TID 0000.0001) %MON dynstat_salt_mean            =   3.5000000000000007E+01
(PID.TID 0000.0001) %MON dynstat_salt_sd              =   7.1054273576010019E-15
(PID.TID 0000.0001) %MON dynstat_salt_del2            =   0.0000000000000000E+00
(PID.TID 0000.0001) %MON dynstat_sst_max              =   6.4955094188051961E+00
(PID.TID 0000.0001) %MON dynstat_sst_min              =   6.4955094188051961E+00
(PID.TID 0000.0001) %MON dynstat_sst_mean             =   6.4955094188051961E+00
(PID.TID 0000.0001) %MON dynstat_sst_sd               =   0.0000000000000000E+00
(PID.TID 0000.0001) %MON dynstat_sst_del2             =   0.0000000000000000E+00
(PID.TID 0000.0001) %MON dynstat_sss_max              =   3.5000000000000000E+01
(PID.TID 0000.0001) %MON dynstat_sss_min              =   3.5000000000000000E+01
(PID.TID 0000.0001) %MON dynstat_sss_mean             =   3.5000000000000000E+01
(PID.TID 0000.0001) %MON dynstat_sss_sd               =   0.0000000000000000E+00
(PID.TID 0000.0001) %MON dynstat_sss_del2             =   0.0000000000000000E+00
(PID.TID 0000.0001) %MON forcing_qnet_max             =   0.0000000000000000E+00
(PID.TID 0000.0001) %MON forcing_qnet_min             =   0.0000000000000000E+00
(PID.TID 0000.0001) %MON forcing_qnet_mean            =   0.0000000000000000E+00
(PID.TID 0000.0001) %MON forcing_qnet_sd              =   0.0000000000000000E+00
(PID.TID 0000.0001) %MON forcing_qnet_del2            =   0.0000000000000000E+00
(PID.TID 0000.0001) %MON forcing_qsw_max              =   0.0000000000000000E+00
(PID.TID 0000.0001) %MON forcing_qsw_min              =   0.0000000000000000E+00
(PID.TID 0000.0001) %MON forcing_qsw_mean             =   0.0000000000000000E+00
(PID.TID 0000.0001) %MON forcing_qsw_sd               =   0.0000000000000000E+00
(PID.TID 0000.0001) %MON forcing_qsw_del2             =   0.0000000000000000E+00
(PID.TID 0000.0001) %MON forcing_empmr_max            =   0.0000000000000000E+00
(PID.TID 0000.0001) %MON forcing_empmr_min            =   0.0000000000000000E+00
(PID.TID 0000.0001) %MON forcing_empmr_mean           =   0.0000000000000000E+00
(PID.TID 0000.0001) %MON forcing_empmr_sd             =   0.0000000000000000E+00
(PID.TID 0000.0001) %MON forcing_empmr_del2           =   0.0000000000000000E+00
(PID.TID 0000.0001) %MON forcing_fu_max               =   2.2681041941046716E+00
(PID.TID 0000.0001) %MON forcing_fu_min               =   2.2681041941046716E+00
(PID.TID 0000.0001) %MON forcing_fu_mean              =   2.2681041941046716E+00
(PID.TID 0000.0001) %MON forcing_fu_sd                =   0.0000000000000000E+00
(PID.TID 0000.0001) %MON forcing_fu_del2              =   0.0000000000000000E+00
(PID.TID 0000.0001) %MON forcing_fv_max               =   1.1514206402003766E+00
(PID.TID 0000.0001) %MON forcing_fv_min               =   1.1514206402003766E+00
(PID.TID 0000.0001) %MON forcing_fv_mean              =   1.1514206402003766E+00
(PID.TID 0000.0001) %MON forcing_fv_sd                =   0.0000000000000000E+00
(PID.TID 0000.0001) %MON forcing_fv_del2              =   0.0000000000000000E+00
(PID.TID 0000.0001) %MON advcfl_uvel_max              =   0.0000000000000000E+00
(PID.TID 0000.0001) %MON advcfl_vvel_max              =   0.0000000000000000E+00
(PID.TID 0000.0001) %MON advcfl_wvel_max              =   0.0000000000000000E+00
(PID.TID 0000.0001) %MON advcfl_W_hf_max              =   0.0000000000000000E+00
(PID.TID 0000.0001) %MON pe_b_mean                    =   0.0000000000000000E+00
(PID.TID 0000.0001) %MON ke_max                       =   0.0000000000000000E+00
(PID.TID 0000.0001) %MON ke_mean                      =   0.0000000000000000E+00
(PID.TID 0000.0001) %MON ke_vol                       =   4.1199767883484609E+13
(PID.TID 0000.0001) %MON vort_r_min                   =   0.0000000000000000E+00
(PID.TID 0000.0001) %MON vort_r_max                   =   0.0000000000000000E+00
(PID.TID 0000.0001) %MON vort_a_mean                  =  -4.5067801836624727E-05
(PID.TID 0000.0001) %MON vort_a_sd                    =  -4.1359030627651384E-25
(PID.TID 0000.0001) %MON vort_p_mean                  =  -4.5067801836624727E-05
(PID.TID 0000.0001) %MON vort_p_sd                    =   0.0000000000000000E+00
(PID.TID 0000.0001) %MON surfExpan_theta_mean         =   0.0000000000000000E+00
(PID.TID 0000.0001) %MON surfExpan_salt_mean          =   0.0000000000000000E+00
(PID.TID 0000.0001) // =======================================================
(PID.TID 0000.0001) // End MONITOR dynamic field statistics
(PID.TID 0000.0001) // =======================================================
(PID.TID 0000.0001) // =======================================================
(PID.TID 0000.0001) // Begin MONITOR ptracer field statistics
(PID.TID 0000.0001) // =======================================================
(PID.TID 0000.0001) %MON trcstat_ptracer01_max        =   2.1623998898820996E+03
(PID.TID 0000.0001) %MON trcstat_ptracer01_min        =   2.0977643258787211E+03
(PID.TID 0000.0001) %MON trcstat_ptracer01_mean       =   2.1557346011468576E+03
(PID.TID 0000.0001) %MON trcstat_ptracer01_sd         =   1.1380984311696624E+01
(PID.TID 0000.0001) %MON trcstat_ptracer01_del2       =   0.0000000000000000E+00
(PID.TID 0000.0001) %MON trcstat_ptracer02_max        =   1.5610659121312093E-03
(PID.TID 0000.0001) %MON trcstat_ptracer02_min        =   1.2517735750300358E-09
(PID.TID 0000.0001) %MON trcstat_ptracer02_mean       =   2.8933956252182605E-04
(PID.TID 0000.0001) %MON trcstat_ptracer02_sd         =   4.2565624074753807E-04
(PID.TID 0000.0001) %MON trcstat_ptracer02_del2       =   0.0000000000000000E+00
(PID.TID 0000.0001) %MON trcstat_ptracer03_max        =   3.7542558395197399E-02
(PID.TID 0000.0001) %MON trcstat_ptracer03_min        =   2.7461431395724013E-10
(PID.TID 0000.0001) %MON trcstat_ptracer03_mean       =   7.1231246315864418E-03
(PID.TID 0000.0001) %MON trcstat_ptracer03_sd         =   9.6410424595749899E-03
(PID.TID 0000.0001) %MON trcstat_ptracer03_del2       =   0.0000000000000000E+00
(PID.TID 0000.0001) %MON trcstat_ptracer04_max        =   1.5341495688982869E+01
(PID.TID 0000.0001) %MON trcstat_ptracer04_min        =   1.1705720596143609E+01
(PID.TID 0000.0001) %MON trcstat_ptracer04_mean       =   1.4467451673178106E+01
(PID.TID 0000.0001) %MON trcstat_ptracer04_sd         =   9.3215969946061694E-01
(PID.TID 0000.0001) %MON trcstat_ptracer04_del2       =   0.0000000000000000E+00
(PID.TID 0000.0001) %MON trcstat_ptracer05_max        =   0.0000000000000000E+00
(PID.TID 0000.0001) %MON trcstat_ptracer05_min        =   0.0000000000000000E+00
(PID.TID 0000.0001) %MON trcstat_ptracer05_mean       =   0.0000000000000000E+00
(PID.TID 0000.0001) %MON trcstat_ptracer05_sd         =   0.0000000000000000E+00
(PID.TID 0000.0001) %MON trcstat_ptracer05_del2       =   0.0000000000000000E+00
(PID.TID 0000.0001) %MON trcstat_ptracer06_max        =   0.0000000000000000E+00
(PID.TID 0000.0001) %MON trcstat_ptracer06_min        =   0.0000000000000000E+00
(PID.TID 0000.0001) %MON trcstat_ptracer06_mean       =   0.0000000000000000E+00
(PID.TID 0000.0001) %MON trcstat_ptracer06_sd         =   0.0000000000000000E+00
(PID.TID 0000.0001) %MON trcstat_ptracer06_del2       =   0.0000000000000000E+00
(PID.TID 0000.0001) %MON trcstat_ptracer07_max        =   9.1622557338005730E-04
(PID.TID 0000.0001) %MON trcstat_ptracer07_min        =   6.8831010026015787E-13
(PID.TID 0000.0001) %MON trcstat_ptracer07_mean       =   5.7949760490809052E-04
(PID.TID 0000.0001) %MON trcstat_ptracer07_sd         =   3.7849060852713254E-04
(PID.TID 0000.0001) %MON trcstat_ptracer07_del2       =   0.0000000000000000E+00
(PID.TID 0000.0001) %MON trcstat_ptracer08_max        =   1.4671694348439901E+00
(PID.TID 0000.0001) %MON trcstat_ptracer08_min        =   1.3799024496489648-105
(PID.TID 0000.0001) %MON trcstat_ptracer08_mean       =   3.2299660831244255E-02
(PID.TID 0000.0001) %MON trcstat_ptracer08_sd         =   2.0471488546251099E-01
(PID.TID 0000.0001) %MON trcstat_ptracer08_del2       =   0.0000000000000000E+00
(PID.TID 0000.0001) %MON trcstat_ptracer09_max        =   5.0967035926717685E-01
(PID.TID 0000.0001) %MON trcstat_ptracer09_min        =   2.2519609357733897E-45
(PID.TID 0000.0001) %MON trcstat_ptracer09_mean       =   3.8155558990771658E-02
(PID.TID 0000.0001) %MON trcstat_ptracer09_sd         =   1.0267426536007893E-01
(PID.TID 0000.0001) %MON trcstat_ptracer09_del2       =   0.0000000000000000E+00
(PID.TID 0000.0001) %MON trcstat_ptracer10_max        =   0.0000000000000000E+00
(PID.TID 0000.0001) %MON trcstat_ptracer10_min        =   0.0000000000000000E+00
(PID.TID 0000.0001) %MON trcstat_ptracer10_mean       =   0.0000000000000000E+00
(PID.TID 0000.0001) %MON trcstat_ptracer10_sd         =   0.0000000000000000E+00
(PID.TID 0000.0001) %MON trcstat_ptracer10_del2       =   0.0000000000000000E+00
(PID.TID 0000.0001) %MON trcstat_ptracer11_max        =   2.5946401422880114E-05
(PID.TID 0000.0001) %MON trcstat_ptracer11_min        =   1.4074755988241748E-49
(PID.TID 0000.0001) %MON trcstat_ptracer11_mean       =   2.2545781017303978E-06
(PID.TID 0000.0001) %MON trcstat_ptracer11_sd         =   5.8781504257538093E-06
(PID.TID 0000.0001) %MON trcstat_ptracer11_del2       =   0.0000000000000000E+00
(PID.TID 0000.0001) %MON trcstat_ptracer12_max        =   9.9636241405488757E-01
(PID.TID 0000.0001) %MON trcstat_ptracer12_min        =   4.7615415706389460E-92
(PID.TID 0000.0001) %MON trcstat_ptracer12_mean       =   2.2426898591311407E-02
(PID.TID 0000.0001) %MON trcstat_ptracer12_sd         =   1.4042364980513039E-01
(PID.TID 0000.0001) %MON trcstat_ptracer12_del2       =   0.0000000000000000E+00
(PID.TID 0000.0001) %MON trcstat_ptracer13_max        =   1.5755054473710661E-01
(PID.TID 0000.0001) %MON trcstat_ptracer13_min        =   7.1297380408848132E-07
(PID.TID 0000.0001) %MON trcstat_ptracer13_mean       =   1.8158459009849800E-02
(PID.TID 0000.0001) %MON trcstat_ptracer13_sd         =   2.2821273690325130E-02
(PID.TID 0000.0001) %MON trcstat_ptracer13_del2       =   0.0000000000000000E+00
(PID.TID 0000.0001) %MON trcstat_ptracer14_max        =   0.0000000000000000E+00
(PID.TID 0000.0001) %MON trcstat_ptracer14_min        =   0.0000000000000000E+00
(PID.TID 0000.0001) %MON trcstat_ptracer14_mean       =   0.0000000000000000E+00
(PID.TID 0000.0001) %MON trcstat_ptracer14_sd         =   0.0000000000000000E+00
(PID.TID 0000.0001) %MON trcstat_ptracer14_del2       =   0.0000000000000000E+00
(PID.TID 0000.0001) %MON trcstat_ptracer15_max        =   0.0000000000000000E+00
(PID.TID 0000.0001) %MON trcstat_ptracer15_min        =   0.0000000000000000E+00
(PID.TID 0000.0001) %MON trcstat_ptracer15_mean       =   0.0000000000000000E+00
(PID.TID 0000.0001) %MON trcstat_ptracer15_sd         =   0.0000000000000000E+00
(PID.TID 0000.0001) %MON trcstat_ptracer15_del2       =   0.0000000000000000E+00
(PID.TID 0000.0001) %MON trcstat_ptracer16_max        =   6.3847210422339208E-06
(PID.TID 0000.0001) %MON trcstat_ptracer16_min        =   4.4560858450201828E-11
(PID.TID 0000.0001) %MON trcstat_ptracer16_mean       =   1.0568757554314308E-06
(PID.TID 0000.0001) %MON trcstat_ptracer16_sd         =   1.0254456372530143E-06
(PID.TID 0000.0001) %MON trcstat_ptracer16_del2       =   0.0000000000000000E+00
(PID.TID 0000.0001) %MON trcstat_ptracer17_max        =   0.0000000000000000E+00
(PID.TID 0000.0001) %MON trcstat_ptracer17_min        =   0.0000000000000000E+00
(PID.TID 0000.0001) %MON trcstat_ptracer17_mean       =   0.0000000000000000E+00
(PID.TID 0000.0001) %MON trcstat_ptracer17_sd         =   0.0000000000000000E+00
(PID.TID 0000.0001) %MON trcstat_ptracer17_del2       =   0.0000000000000000E+00
(PID.TID 0000.0001) %MON trcstat_ptracer18_max        =   3.6395441686873042E-01
(PID.TID 0000.0001) %MON trcstat_ptracer18_min        =   1.1458364749990755-109
(PID.TID 0000.0001) %MON trcstat_ptracer18_mean       =   8.0466857877137254E-03
(PID.TID 0000.0001) %MON trcstat_ptracer18_sd         =   5.0783001623207813E-02
(PID.TID 0000.0001) %MON trcstat_ptracer18_del2       =   0.0000000000000000E+00
(PID.TID 0000.0001) %MON trcstat_ptracer19_max        =   3.7681369223631112E-01
(PID.TID 0000.0001) %MON trcstat_ptracer19_min        =   1.9059728841703703-109
(PID.TID 0000.0001) %MON trcstat_ptracer19_mean       =   8.3434737592783404E-03
(PID.TID 0000.0001) %MON trcstat_ptracer19_sd         =   5.2650229768334084E-02
(PID.TID 0000.0001) %MON trcstat_ptracer19_del2       =   0.0000000000000000E+00
(PID.TID 0000.0001) %MON trcstat_ptracer20_max        =   3.8895302801375936E-01
(PID.TID 0000.0001) %MON trcstat_ptracer20_min        =   3.4384791869948149-109
(PID.TID 0000.0001) %MON trcstat_ptracer20_mean       =   8.6220922648836736E-03
(PID.TID 0000.0001) %MON trcstat_ptracer20_sd         =   5.4402873085675166E-02
(PID.TID 0000.0001) %MON trcstat_ptracer20_del2       =   0.0000000000000000E+00
(PID.TID 0000.0001) %MON trcstat_ptracer21_max        =   3.9977858583003978E-01
(PID.TID 0000.0001) %MON trcstat_ptracer21_min        =   6.7955824467997464-109
(PID.TID 0000.0001) %MON trcstat_ptracer21_mean       =   8.8729322310918176E-03
(PID.TID 0000.0001) %MON trcstat_ptracer21_sd         =   5.5980015221874714E-02
(PID.TID 0000.0001) %MON trcstat_ptracer21_del2       =   0.0000000000000000E+00
(PID.TID 0000.0001) %MON trcstat_ptracer22_max        =   4.0926031213466646E-01
(PID.TID 0000.0001) %MON trcstat_ptracer22_min        =   1.4937923286409428-108
(PID.TID 0000.0001) %MON trcstat_ptracer22_mean       =   9.0930029970941375E-03
(PID.TID 0000.0001) %MON trcstat_ptracer22_sd         =   5.7363291103074719E-02
(PID.TID 0000.0001) %MON trcstat_ptracer22_del2       =   0.0000000000000000E+00
(PID.TID 0000.0001) %MON trcstat_ptracer23_max        =   4.1741783566316587E-01
(PID.TID 0000.0001) %MON trcstat_ptracer23_min        =   3.7253998379117856-108
(PID.TID 0000.0001) %MON trcstat_ptracer23_mean       =   9.2817762734157244E-03
(PID.TID 0000.0001) %MON trcstat_ptracer23_sd         =   5.8549548254593846E-02
(PID.TID 0000.0001) %MON trcstat_ptracer23_del2       =   0.0000000000000000E+00
(PID.TID 0000.0001) %MON trcstat_ptracer24_max        =   4.2414729838978904E-01
(PID.TID 0000.0001) %MON trcstat_ptracer24_min        =   1.0712561265717246-107
(PID.TID 0000.0001) %MON trcstat_ptracer24_mean       =   9.4392783571428662E-03
(PID.TID 0000.0001) %MON trcstat_ptracer24_sd         =   5.9538568259004915E-02
(PID.TID 0000.0001) %MON trcstat_ptracer24_del2       =   0.0000000000000000E+00
(PID.TID 0000.0001) %MON trcstat_ptracer25_max        =   4.2962446444816338E-01
(PID.TID 0000.0001) %MON trcstat_ptracer25_min        =   3.5522887664021271-107
(PID.TID 0000.0001) %MON trcstat_ptracer25_mean       =   9.5685279840226709E-03
(PID.TID 0000.0001) %MON trcstat_ptracer25_sd         =   6.0349401732503499E-02
(PID.TID 0000.0001) %MON trcstat_ptracer25_del2       =   0.0000000000000000E+00
(PID.TID 0000.0001) %MON trcstat_ptracer26_max        =   4.3397221845216932E-01
(PID.TID 0000.0001) %MON trcstat_ptracer26_min        =   1.3320554529627125-106
(PID.TID 0000.0001) %MON trcstat_ptracer26_mean       =   9.6726216754898908E-03
(PID.TID 0000.0001) %MON trcstat_ptracer26_sd         =   6.1001352001549936E-02
(PID.TID 0000.0001) %MON trcstat_ptracer26_del2       =   0.0000000000000000E+00
(PID.TID 0000.0001) %MON trcstat_ptracer27_max        =   4.3981187766739399E-01
(PID.TID 0000.0001) %MON trcstat_ptracer27_min        =   2.4237657846707107-105
(PID.TID 0000.0001) %MON trcstat_ptracer27_mean       =   9.8184555718231915E-03
(PID.TID 0000.0001) %MON trcstat_ptracer27_sd         =   6.1910188919460575E-02
(PID.TID 0000.0001) %MON trcstat_ptracer27_del2       =   0.0000000000000000E+00
(PID.TID 0000.0001) %MON trcstat_ptracer28_max        =   4.3945975840147766E-01
(PID.TID 0000.0001) %MON trcstat_ptracer28_min        =   1.1328203404641385-104
(PID.TID 0000.0001) %MON trcstat_ptracer28_mean       =   9.8189051899812800E-03
(PID.TID 0000.0001) %MON trcstat_ptracer28_sd         =   6.1906658267434474E-02
(PID.TID 0000.0001) %MON trcstat_ptracer28_del2       =   0.0000000000000000E+00
(PID.TID 0000.0001) %MON trcstat_ptracer29_max        =   4.3895998335117820E-01
(PID.TID 0000.0001) %MON trcstat_ptracer29_min        =   5.7298862809533439-104
(PID.TID 0000.0001) %MON trcstat_ptracer29_mean       =   9.8190792905653614E-03
(PID.TID 0000.0001) %MON trcstat_ptracer29_sd         =   6.1899305979226639E-02
(PID.TID 0000.0001) %MON trcstat_ptracer29_del2       =   0.0000000000000000E+00
(PID.TID 0000.0001) %MON trcstat_ptracer30_max        =   4.3830852007532206E-01
(PID.TID 0000.0001) %MON trcstat_ptracer30_min        =   3.3909071010332599-103
(PID.TID 0000.0001) %MON trcstat_ptracer30_mean       =   9.8193299682491041E-03
(PID.TID 0000.0001) %MON trcstat_ptracer30_sd         =   6.1889835135477363E-02
(PID.TID 0000.0001) %MON trcstat_ptracer30_del2       =   0.0000000000000000E+00
(PID.TID 0000.0001) %MON trcstat_ptracer31_max        =   4.3745851492638643E-01
(PID.TID 0000.0001) %MON trcstat_ptracer31_min        =   2.7524802013534319-102
(PID.TID 0000.0001) %MON trcstat_ptracer31_mean       =   9.8196790859597319E-03
(PID.TID 0000.0001) %MON trcstat_ptracer31_sd         =   6.1877585745831354E-02
(PID.TID 0000.0001) %MON trcstat_ptracer31_del2       =   0.0000000000000000E+00
(PID.TID 0000.0001) %MON trcstat_ptracer32_max        =   4.3634891553304528E-01
(PID.TID 0000.0001) %MON trcstat_ptracer32_min        =   3.4042249318946754-101
(PID.TID 0000.0001) %MON trcstat_ptracer32_mean       =   9.8201553837965350E-03
(PID.TID 0000.0001) %MON trcstat_ptracer32_sd         =   6.1861700825533827E-02
(PID.TID 0000.0001) %MON trcstat_ptracer32_del2       =   0.0000000000000000E+00
(PID.TID 0000.0001) %MON trcstat_ptracer33_max        =   1.0412423888380620E+00
(PID.TID 0000.0001) %MON trcstat_ptracer33_min        =   5.3045140538508292-110
(PID.TID 0000.0001) %MON trcstat_ptracer33_mean       =   2.3032494028324742E-02
(PID.TID 0000.0001) %MON trcstat_ptracer33_sd         =   1.4574873206038683E-01
(PID.TID 0000.0001) %MON trcstat_ptracer33_del2       =   0.0000000000000000E+00
(PID.TID 0000.0001) %MON trcstat_ptracer34_max        =   1.0634024937039084E-01
(PID.TID 0000.0001) %MON trcstat_ptracer34_min        =   3.6250614305129378-110
(PID.TID 0000.0001) %MON trcstat_ptracer34_mean       =   2.3741743964632938E-03
(PID.TID 0000.0001) %MON trcstat_ptracer34_sd         =   1.4975671035180469E-02
(PID.TID 0000.0001) %MON trcstat_ptracer34_del2       =   0.0000000000000000E+00
(PID.TID 0000.0001) %MON trcstat_ptracer35_max        =   9.7767898823188079E-02
(PID.TID 0000.0001) %MON trcstat_ptracer35_min        =   5.0723029814045318-110
(PID.TID 0000.0001) %MON trcstat_ptracer35_mean       =   2.1837031938537186E-03
(PID.TID 0000.0001) %MON trcstat_ptracer35_sd         =   1.3773330592386439E-02
(PID.TID 0000.0001) %MON trcstat_ptracer35_del2       =   0.0000000000000000E+00
(PID.TID 0000.0001) %MON trcstat_ptracer36_max        =   8.9984939765208008E-02
(PID.TID 0000.0001) %MON trcstat_ptracer36_min        =   7.8603108742453101-110
(PID.TID 0000.0001) %MON trcstat_ptracer36_mean       =   2.0104520964169502E-03
(PID.TID 0000.0001) %MON trcstat_ptracer36_sd         =   1.2679989044623623E-02
(PID.TID 0000.0001) %MON trcstat_ptracer36_del2       =   0.0000000000000000E+00
(PID.TID 0000.0001) %MON trcstat_ptracer37_max        =   8.3109304229952746E-02
(PID.TID 0000.0001) %MON trcstat_ptracer37_min        =   1.3634587939592705-109
(PID.TID 0000.0001) %MON trcstat_ptracer37_mean       =   1.8572650772437031E-03
(PID.TID 0000.0001) %MON trcstat_ptracer37_sd         =   1.1713435995517784E-02
(PID.TID 0000.0001) %MON trcstat_ptracer37_del2       =   0.0000000000000000E+00
(PID.TID 0000.0001) %MON trcstat_ptracer38_max        =   7.7185603433766264E-02
(PID.TID 0000.0001) %MON trcstat_ptracer38_min        =   2.6859891600869634-109
(PID.TID 0000.0001) %MON trcstat_ptracer38_mean       =   1.7252262772430801E-03
(PID.TID 0000.0001) %MON trcstat_ptracer38_sd         =   1.0880395501758998E-02
(PID.TID 0000.0001) %MON trcstat_ptracer38_del2       =   0.0000000000000000E+00
(PID.TID 0000.0001) %MON trcstat_ptracer39_max        =   7.2189049761302443E-02
(PID.TID 0000.0001) %MON trcstat_ptracer39_min        =   6.1241324693796857-109
(PID.TID 0000.0001) %MON trcstat_ptracer39_mean       =   1.6138676126238125E-03
(PID.TID 0000.0001) %MON trcstat_ptracer39_sd         =   1.0177828025600164E-02
(PID.TID 0000.0001) %MON trcstat_ptracer39_del2       =   0.0000000000000000E+00
(PID.TID 0000.0001) %MON trcstat_ptracer40_max        =   6.8050675679826991E-02
(PID.TID 0000.0001) %MON trcstat_ptracer40_min        =   1.6409727584489493-108
(PID.TID 0000.0001) %MON trcstat_ptracer40_mean       =   1.5217161972585283E-03
(PID.TID 0000.0001) %MON trcstat_ptracer40_sd         =   9.5963848267882658E-03
(PID.TID 0000.0001) %MON trcstat_ptracer40_del2       =   0.0000000000000000E+00
(PID.TID 0000.0001) %MON trcstat_ptracer41_max        =   6.4680840291518577E-02
(PID.TID 0000.0001) %MON trcstat_ptracer41_min        =   5.1589594811849123-108
(PID.TID 0000.0001) %MON trcstat_ptracer41_mean       =   1.4468070066896515E-03
(PID.TID 0000.0001) %MON trcstat_ptracer41_sd         =   9.1236339199962328E-03
(PID.TID 0000.0001) %MON trcstat_ptracer41_del2       =   0.0000000000000000E+00
(PID.TID 0000.0001) %MON trcstat_ptracer42_max        =   6.1980317461810319E-02
(PID.TID 0000.0001) %MON trcstat_ptracer42_min        =   1.8604497121455229-107
(PID.TID 0000.0001) %MON trcstat_ptracer42_mean       =   1.3869595777810956E-03
(PID.TID 0000.0001) %MON trcstat_ptracer42_sd         =   8.7457938506927263E-03
(PID.TID 0000.0001) %MON trcstat_ptracer42_del2       =   0.0000000000000000E+00
(PID.TID 0000.0001) %MON trcstat_ptracer43_max        =   5.8208459739651504E-02
(PID.TID 0000.0001) %MON trcstat_ptracer43_min        =   3.2259010783193937-106
(PID.TID 0000.0001) %MON trcstat_ptracer43_mean       =   1.3041536912818778E-03
(PID.TID 0000.0001) %MON trcstat_ptracer43_sd         =   8.2224023177943292E-03
(PID.TID 0000.0001) %MON trcstat_ptracer43_del2       =   0.0000000000000000E+00
(PID.TID 0000.0001) %MON trcstat_ptracer44_max        =   5.8144072261706529E-02
(PID.TID 0000.0001) %MON trcstat_ptracer44_min        =   1.5077773828254710-105
(PID.TID 0000.0001) %MON trcstat_ptracer44_mean       =   1.3040215541879402E-03
(PID.TID 0000.0001) %MON trcstat_ptracer44_sd         =   8.2206739050016200E-03
(PID.TID 0000.0001) %MON trcstat_ptracer44_del2       =   0.0000000000000000E+00
(PID.TID 0000.0001) %MON trcstat_ptracer45_max        =   5.8079232888627930E-02
(PID.TID 0000.0001) %MON trcstat_ptracer45_min        =   7.6273738733117259-105
(PID.TID 0000.0001) %MON trcstat_ptracer45_mean       =   1.3040578406655456E-03
(PID.TID 0000.0001) %MON trcstat_ptracer45_sd         =   8.2197878379035652E-03
(PID.TID 0000.0001) %MON trcstat_ptracer45_del2       =   0.0000000000000000E+00
(PID.TID 0000.0001) %MON trcstat_ptracer46_max        =   5.7994303757149243E-02
(PID.TID 0000.0001) %MON trcstat_ptracer46_min        =   4.5151602776362712-104
(PID.TID 0000.0001) %MON trcstat_ptracer46_mean       =   1.3041047578726094E-03
(PID.TID 0000.0001) %MON trcstat_ptracer46_sd         =   8.2186245415343546E-03
(PID.TID 0000.0001) %MON trcstat_ptracer46_del2       =   0.0000000000000000E+00
(PID.TID 0000.0001) %MON trcstat_ptracer47_max        =   5.7883104392303486E-02
(PID.TID 0000.0001) %MON trcstat_ptracer47_min        =   3.6669392272084388-103
(PID.TID 0000.0001) %MON trcstat_ptracer47_mean       =   1.3041655572536036E-03
(PID.TID 0000.0001) %MON trcstat_ptracer47_sd         =   8.2170989965751600E-03
(PID.TID 0000.0001) %MON trcstat_ptracer47_del2       =   0.0000000000000000E+00
(PID.TID 0000.0001) %MON trcstat_ptracer48_max        =   5.7848547085914741E-02
(PID.TID 0000.0001) %MON trcstat_ptracer48_min        =   4.5373657037578173-102
(PID.TID 0000.0001) %MON trcstat_ptracer48_mean       =   1.3042444426180871E-03
(PID.TID 0000.0001) %MON trcstat_ptracer48_sd         =   8.2151003710072973E-03
(PID.TID 0000.0001) %MON trcstat_ptracer48_del2       =   0.0000000000000000E+00
(PID.TID 0000.0001) %MON trcstat_ptracer49_max        =   1.4077831850143224E-01
(PID.TID 0000.0001) %MON trcstat_ptracer49_min        =   7.3052260041963478-111
(PID.TID 0000.0001) %MON trcstat_ptracer49_mean       =   3.1155322720194572E-03
(PID.TID 0000.0001) %MON trcstat_ptracer49_sd         =   1.9712740608184006E-02
(PID.TID 0000.0001) %MON trcstat_ptracer49_del2       =   0.0000000000000000E+00
(PID.TID 0000.0001) %MON trcstat_ptracer50_max        =   6.6497331011780207E-06
(PID.TID 0000.0001) %MON trcstat_ptracer50_min        =   1.9472923267479441-114
(PID.TID 0000.0001) %MON trcstat_ptracer50_mean       =   1.4845754903837276E-07
(PID.TID 0000.0001) %MON trcstat_ptracer50_sd         =   9.3658180805949923E-07
(PID.TID 0000.0001) %MON trcstat_ptracer50_del2       =   0.0000000000000000E+00
(PID.TID 0000.0001) %MON trcstat_ptracer51_max        =   6.2952676998383834E-06
(PID.TID 0000.0001) %MON trcstat_ptracer51_min        =   2.9029413037620642-114
(PID.TID 0000.0001) %MON trcstat_ptracer51_mean       =   1.4058039558866644E-07
(PID.TID 0000.0001) %MON trcstat_ptracer51_sd         =   8.8683085518350422E-07
(PID.TID 0000.0001) %MON trcstat_ptracer51_del2       =   0.0000000000000000E+00
(PID.TID 0000.0001) %MON trcstat_ptracer52_max        =   5.9813051436873058E-06
(PID.TID 0000.0001) %MON trcstat_ptracer52_min        =   4.7834325570542043-114
(PID.TID 0000.0001) %MON trcstat_ptracer52_mean       =   1.3360277445701388E-07
(PID.TID 0000.0001) %MON trcstat_ptracer52_sd         =   8.4276316236809658E-07
(PID.TID 0000.0001) %MON trcstat_ptracer52_del2       =   0.0000000000000000E+00
(PID.TID 0000.0001) %MON trcstat_ptracer53_max        =   5.7071895610980584E-06
(PID.TID 0000.0001) %MON trcstat_ptracer53_min        =   8.7831474554300290-114
(PID.TID 0000.0001) %MON trcstat_ptracer53_mean       =   1.2751077803083827E-07
(PID.TID 0000.0001) %MON trcstat_ptracer53_sd         =   8.0428982071029398E-07
(PID.TID 0000.0001) %MON trcstat_ptracer53_del2       =   0.0000000000000000E+00
(PID.TID 0000.0001) %MON trcstat_ptracer54_max        =   5.4707046594430804E-06
(PID.TID 0000.0001) %MON trcstat_ptracer54_min        =   1.8198423750164191-113
(PID.TID 0000.0001) %MON trcstat_ptracer54_mean       =   1.2225750798826721E-07
(PID.TID 0000.0001) %MON trcstat_ptracer54_sd         =   7.7111286530170942E-07
(PID.TID 0000.0001) %MON trcstat_ptracer54_del2       =   0.0000000000000000E+00
(PID.TID 0000.0001) %MON trcstat_ptracer55_max        =   5.2686988944525134E-06
(PID.TID 0000.0001) %MON trcstat_ptracer55_min        =   4.3295933938420333-113
(PID.TID 0000.0001) %MON trcstat_ptracer55_mean       =   1.1777509265873576E-07
(PID.TID 0000.0001) %MON trcstat_ptracer55_sd         =   7.4280189847745099E-07
(PID.TID 0000.0001) %MON trcstat_ptracer55_del2       =   0.0000000000000000E+00
(PID.TID 0000.0001) %MON trcstat_ptracer56_max        =   5.0976925990555716E-06
(PID.TID 0000.0001) %MON trcstat_ptracer56_min        =   1.1996221576429241-112
(PID.TID 0000.0001) %MON trcstat_ptracer56_mean       =   1.1398695782263129E-07
(PID.TID 0000.0001) %MON trcstat_ptracer56_sd         =   7.1887190713676783E-07
(PID.TID 0000.0001) %MON trcstat_ptracer56_del2       =   0.0000000000000000E+00
(PID.TID 0000.0001) %MON trcstat_ptracer57_max        =   4.9539105959519029E-06
(PID.TID 0000.0001) %MON trcstat_ptracer57_min        =   3.8644629560671665-112
(PID.TID 0000.0001) %MON trcstat_ptracer57_mean       =   1.1081156547796872E-07
(PID.TID 0000.0001) %MON trcstat_ptracer57_sd         =   6.9880612248658185E-07
(PID.TID 0000.0001) %MON trcstat_ptracer57_del2       =   0.0000000000000000E+00
(PID.TID 0000.0001) %MON trcstat_ptracer58_max        =   4.8337094110368124E-06
(PID.TID 0000.0001) %MON trcstat_ptracer58_min        =   1.4169496174238735-111
(PID.TID 0000.0001) %MON trcstat_ptracer58_mean       =   1.0817014428057605E-07
(PID.TID 0000.0001) %MON trcstat_ptracer58_sd         =   6.8210518912326095E-07
(PID.TID 0000.0001) %MON trcstat_ptracer58_del2       =   0.0000000000000000E+00
(PID.TID 0000.0001) %MON trcstat_ptracer59_max        =   4.6506078455937984E-06
(PID.TID 0000.0001) %MON trcstat_ptracer59_min        =   2.4995356166678956-110
(PID.TID 0000.0001) %MON trcstat_ptracer59_mean       =   1.0420255999169514E-07
(PID.TID 0000.0001) %MON trcstat_ptracer59_sd         =   6.5697804832126553E-07
(PID.TID 0000.0001) %MON trcstat_ptracer59_del2       =   0.0000000000000000E+00
(PID.TID 0000.0001) %MON trcstat_ptracer60_max        =   4.5860882377691411E-06
(PID.TID 0000.0001) %MON trcstat_ptracer60_min        =   1.1595846725938269-109
(PID.TID 0000.0001) %MON trcstat_ptracer60_mean       =   1.0284792672491067E-07
(PID.TID 0000.0001) %MON trcstat_ptracer60_sd         =   6.4836884698297779E-07
(PID.TID 0000.0001) %MON trcstat_ptracer60_del2       =   0.0000000000000000E+00
(PID.TID 0000.0001) %MON trcstat_ptracer61_max        =   4.5319897373976654E-06
(PID.TID 0000.0001) %MON trcstat_ptracer61_min        =   5.8274153363761725-109
(PID.TID 0000.0001) %MON trcstat_ptracer61_mean       =   1.0175197366046000E-07
(PID.TID 0000.0001) %MON trcstat_ptracer61_sd         =   6.4137178061845912E-07
(PID.TID 0000.0001) %MON trcstat_ptracer61_del2       =   0.0000000000000000E+00
(PID.TID 0000.0001) %MON trcstat_ptracer62_max        =   4.4860114931989799E-06
(PID.TID 0000.0001) %MON trcstat_ptracer62_min        =   3.4279128452458683-108
(PID.TID 0000.0001) %MON trcstat_ptracer62_mean       =   1.0087157679383276E-07
(PID.TID 0000.0001) %MON trcstat_ptracer62_sd         =   6.3570871254507455E-07
(PID.TID 0000.0001) %MON trcstat_ptracer62_del2       =   0.0000000000000000E+00
(PID.TID 0000.0001) %MON trcstat_ptracer63_max        =   4.4460510716504617E-06
(PID.TID 0000.0001) %MON trcstat_ptracer63_min        =   2.7677854463505193-107
(PID.TID 0000.0001) %MON trcstat_ptracer63_mean       =   1.0017038408802225E-07
(PID.TID 0000.0001) %MON trcstat_ptracer63_sd         =   6.3114242991439308E-07
(PID.TID 0000.0001) %MON trcstat_ptracer63_del2       =   0.0000000000000000E+00
(PID.TID 0000.0001) %MON trcstat_ptracer64_max        =   4.4184918556098314E-06
(PID.TID 0000.0001) %MON trcstat_ptracer64_min        =   3.4119171878106867-106
(PID.TID 0000.0001) %MON trcstat_ptracer64_mean       =   9.9617540903236519E-08
(PID.TID 0000.0001) %MON trcstat_ptracer64_sd         =   6.2746800677221941E-07
(PID.TID 0000.0001) %MON trcstat_ptracer64_del2       =   0.0000000000000000E+00
(PID.TID 0000.0001) %MON trcstat_ptracer65_max        =   2.3795181627712146E-05
(PID.TID 0000.0001) %MON trcstat_ptracer65_min        =   1.0070043021174694-114
(PID.TID 0000.0001) %MON trcstat_ptracer65_mean       =   5.2530157375044246E-07
(PID.TID 0000.0001) %MON trcstat_ptracer65_sd         =   3.3268444637042567E-06
(PID.TID 0000.0001) %MON trcstat_ptracer65_del2       =   0.0000000000000000E+00
(PID.TID 0000.0001) %MON trcstat_ptracer66_max        =   1.6554504131339201E-01
(PID.TID 0000.0001) %MON trcstat_ptracer66_min        =   4.4433710926802452-110
(PID.TID 0000.0001) %MON trcstat_ptracer66_mean       =   3.5779822735175879E-03
(PID.TID 0000.0001) %MON trcstat_ptracer66_sd         =   2.2725181021506138E-02
(PID.TID 0000.0001) %MON trcstat_ptracer66_del2       =   0.0000000000000000E+00
(PID.TID 0000.0001) %MON trcstat_ptracer67_max        =   1.4814653965054897E-01
(PID.TID 0000.0001) %MON trcstat_ptracer67_min        =   6.1883196078631590-110
(PID.TID 0000.0001) %MON trcstat_ptracer67_mean       =   3.2000313222781524E-03
(PID.TID 0000.0001) %MON trcstat_ptracer67_sd         =   2.0332417245294439E-02
(PID.TID 0000.0001) %MON trcstat_ptracer67_del2       =   0.0000000000000000E+00
(PID.TID 0000.0001) %MON trcstat_ptracer68_max        =   1.3281423035284542E-01
(PID.TID 0000.0001) %MON trcstat_ptracer68_min        =   9.5633510581602245-110
(PID.TID 0000.0001) %MON trcstat_ptracer68_mean       =   2.8660533825325043E-03
(PID.TID 0000.0001) %MON trcstat_ptracer68_sd         =   1.8210700222412713E-02
(PID.TID 0000.0001) %MON trcstat_ptracer68_del2       =   0.0000000000000000E+00
(PID.TID 0000.0001) %MON trcstat_ptracer69_max        =   1.1832989990616670E-01
(PID.TID 0000.0001) %MON trcstat_ptracer69_min        =   1.6471549559222802-109
(PID.TID 0000.0001) %MON trcstat_ptracer69_mean       =   2.5591161429984362E-03
(PID.TID 0000.0001) %MON trcstat_ptracer69_sd         =   1.6253184600168565E-02
(PID.TID 0000.0001) %MON trcstat_ptracer69_del2       =   0.0000000000000000E+00
(PID.TID 0000.0001) %MON trcstat_ptracer70_max        =   1.0579216077419192E-01
(PID.TID 0000.0001) %MON trcstat_ptracer70_min        =   3.2198392803008067-109
(PID.TID 0000.0001) %MON trcstat_ptracer70_mean       =   2.2958698735659529E-03
(PID.TID 0000.0001) %MON trcstat_ptracer70_sd         =   1.4569816806462126E-02
(PID.TID 0000.0001) %MON trcstat_ptracer70_del2       =   0.0000000000000000E+00
(PID.TID 0000.0001) %MON trcstat_ptracer71_max        =   9.5444476422657798E-02
(PID.TID 0000.0001) %MON trcstat_ptracer71_min        =   7.2853047768001326-109
(PID.TID 0000.0001) %MON trcstat_ptracer71_mean       =   2.0783511328065388E-03
(PID.TID 0000.0001) %MON trcstat_ptracer71_sd         =   1.3176340419255184E-02
(PID.TID 0000.0001) %MON trcstat_ptracer71_del2       =   0.0000000000000000E+00
(PID.TID 0000.0001) %MON trcstat_ptracer72_max        =   8.6569785266629229E-02
(PID.TID 0000.0001) %MON trcstat_ptracer72_min        =   1.9318730745037662-108
(PID.TID 0000.0001) %MON trcstat_ptracer72_mean       =   1.8953455977598747E-03
(PID.TID 0000.0001) %MON trcstat_ptracer72_sd         =   1.2002013732130891E-02
(PID.TID 0000.0001) %MON trcstat_ptracer72_del2       =   0.0000000000000000E+00
(PID.TID 0000.0001) %MON trcstat_ptracer73_max        =   7.9343068800136862E-02
(PID.TID 0000.0001) %MON trcstat_ptracer73_min        =   6.0021275248112035-108
(PID.TID 0000.0001) %MON trcstat_ptracer73_mean       =   1.7472988689596649E-03
(PID.TID 0000.0001) %MON trcstat_ptracer73_sd         =   1.1051148728505164E-02
(PID.TID 0000.0001) %MON trcstat_ptracer73_del2       =   0.0000000000000000E+00
(PID.TID 0000.0001) %MON trcstat_ptracer74_max        =   7.3557194613021459E-02
(PID.TID 0000.0001) %MON trcstat_ptracer74_min        =   2.1379965341626463-107
(PID.TID 0000.0001) %MON trcstat_ptracer74_mean       =   1.6295230385337907E-03
(PID.TID 0000.0001) %MON trcstat_ptracer74_sd         =   1.0294281575105155E-02
(PID.TID 0000.0001) %MON trcstat_ptracer74_del2       =   0.0000000000000000E+00
(PID.TID 0000.0001) %MON trcstat_ptracer75_max        =   6.5505930355504338E-02
(PID.TID 0000.0001) %MON trcstat_ptracer75_min        =   3.6291867646584675-106
(PID.TID 0000.0001) %MON trcstat_ptracer75_mean       =   1.4673773533452452E-03
(PID.TID 0000.0001) %MON trcstat_ptracer75_sd         =   9.2515856371670341E-03
(PID.TID 0000.0001) %MON trcstat_ptracer75_del2       =   0.0000000000000000E+00
(PID.TID 0000.0001) %MON trcstat_ptracer76_max        =   6.5412244825031954E-02
(PID.TID 0000.0001) %MON trcstat_ptracer76_min        =   1.6962537963131467-105
(PID.TID 0000.0001) %MON trcstat_ptracer76_mean       =   1.4670279160312234E-03
(PID.TID 0000.0001) %MON trcstat_ptracer76_sd         =   9.2482812638299862E-03
(PID.TID 0000.0001) %MON trcstat_ptracer76_del2       =   0.0000000000000000E+00
(PID.TID 0000.0001) %MON trcstat_ptracer77_max        =   6.5339300347957319E-02
(PID.TID 0000.0001) %MON trcstat_ptracer77_min        =   8.5808170595183373-105
(PID.TID 0000.0001) %MON trcstat_ptracer77_mean       =   1.4670687384205849E-03
(PID.TID 0000.0001) %MON trcstat_ptracer77_sd         =   9.2472844358526037E-03
(PID.TID 0000.0001) %MON trcstat_ptracer77_del2       =   0.0000000000000000E+00
(PID.TID 0000.0001) %MON trcstat_ptracer78_max        =   6.5243754836179974E-02
(PID.TID 0000.0001) %MON trcstat_ptracer78_min        =   5.0795680112608335-104
(PID.TID 0000.0001) %MON trcstat_ptracer78_mean       =   1.4671215204104865E-03
(PID.TID 0000.0001) %MON trcstat_ptracer78_sd         =   9.2459757241654516E-03
(PID.TID 0000.0001) %MON trcstat_ptracer78_del2       =   0.0000000000000000E+00
(PID.TID 0000.0001) %MON trcstat_ptracer79_max        =   6.5118655237979592E-02
(PID.TID 0000.0001) %MON trcstat_ptracer79_min        =   4.1253169439018561-103
(PID.TID 0000.0001) %MON trcstat_ptracer79_mean       =   1.4671899198851043E-03
(PID.TID 0000.0001) %MON trcstat_ptracer79_sd         =   9.2442594817957677E-03
(PID.TID 0000.0001) %MON trcstat_ptracer79_del2       =   0.0000000000000000E+00
(PID.TID 0000.0001) %MON trcstat_ptracer80_max        =   6.5079778171099528E-02
(PID.TID 0000.0001) %MON trcstat_ptracer80_min        =   5.1045491781004906-102
(PID.TID 0000.0001) %MON trcstat_ptracer80_mean       =   1.4672786661420142E-03
(PID.TID 0000.0001) %MON trcstat_ptracer80_sd         =   9.2420110224107656E-03
(PID.TID 0000.0001) %MON trcstat_ptracer80_del2       =   0.0000000000000000E+00
(PID.TID 0000.0001) // =======================================================
(PID.TID 0000.0001) // End MONITOR ptracers field statistics
(PID.TID 0000.0001) // =======================================================
 Computing Diagnostic #    156  TRAC01       Counter:       1   Parms: SMR     MR      
 Computing Diagnostic #    169  TRAC02       Counter:       1   Parms: SMR     MR      
 Computing Diagnostic #    182  TRAC03       Counter:       1   Parms: SMR     MR      
 Computing Diagnostic #    195  TRAC04       Counter:       1   Parms: SMR     MR      
 Computing Diagnostic #    208  TRAC05       Counter:       1   Parms: SMR     MR      
 Computing Diagnostic #    221  TRAC06       Counter:       1   Parms: SMR     MR      
 Computing Diagnostic #    234  TRAC07       Counter:       1   Parms: SMR     MR      
 Computing Diagnostic #    247  TRAC08       Counter:       1   Parms: SMR     MR      
 Computing Diagnostic #    260  TRAC09       Counter:       1   Parms: SMR     MR      
 Computing Diagnostic #    273  TRAC10       Counter:       1   Parms: SMR     MR      
 Computing Diagnostic #    286  TRAC11       Counter:       1   Parms: SMR     MR      
 Computing Diagnostic #    299  TRAC12       Counter:       1   Parms: SMR     MR      
 Computing Diagnostic #    312  TRAC13       Counter:       1   Parms: SMR     MR      
 Computing Diagnostic #    325  TRAC14       Counter:       1   Parms: SMR     MR      
 Computing Diagnostic #    338  TRAC15       Counter:       1   Parms: SMR     MR      
 Computing Diagnostic #    351  TRAC16       Counter:       1   Parms: SMR     MR      
 Computing Diagnostic #    364  TRAC17       Counter:       1   Parms: SMR     MR      
 Computing Diagnostic #    377  TRAC18       Counter:       1   Parms: SMR     MR      
 Computing Diagnostic #    390  TRAC19       Counter:       1   Parms: SMR     MR      
 Computing Diagnostic #    403  TRAC20       Counter:       1   Parms: SMR     MR      
 Computing Diagnostic #    416  TRAC21       Counter:       1   Parms: SMR     MR      
 Computing Diagnostic #    429  TRAC22       Counter:       1   Parms: SMR     MR      
 Computing Diagnostic #    442  TRAC23       Counter:       1   Parms: SMR     MR      
 Computing Diagnostic #    455  TRAC24       Counter:       1   Parms: SMR     MR      
 Computing Diagnostic #    468  TRAC25       Counter:       1   Parms: SMR     MR      
 Computing Diagnostic #    481  TRAC26       Counter:       1   Parms: SMR     MR      
 Computing Diagnostic #    494  TRAC27       Counter:       1   Parms: SMR     MR      
 Computing Diagnostic #    507  TRAC28       Counter:       1   Parms: SMR     MR      
 Computing Diagnostic #    520  TRAC29       Counter:       1   Parms: SMR     MR      
 Computing Diagnostic #    533  TRAC30       Counter:       1   Parms: SMR     MR      
 Computing Diagnostic #    546  TRAC31       Counter:       1   Parms: SMR     MR      
 Computing Diagnostic #    559  TRAC32       Counter:       1   Parms: SMR     MR      
 Computing Diagnostic #    572  TRAC33       Counter:       1   Parms: SMR     MR      
 Computing Diagnostic #    585  TRAC34       Counter:       1   Parms: SMR     MR      
 Computing Diagnostic #    598  TRAC35       Counter:       1   Parms: SMR     MR      
 Computing Diagnostic #    611  TRAC36       Counter:       1   Parms: SMR     MR      
 Computing Diagnostic #    624  TRAC37       Counter:       1   Parms: SMR     MR      
 Computing Diagnostic #    637  TRAC38       Counter:       1   Parms: SMR     MR      
 Computing Diagnostic #    650  TRAC39       Counter:       1   Parms: SMR     MR      
 Computing Diagnostic #    663  TRAC40       Counter:       1   Parms: SMR     MR      
 Computing Diagnostic #    676  TRAC41       Counter:       1   Parms: SMR     MR      
 Computing Diagnostic #    689  TRAC42       Counter:       1   Parms: SMR     MR      
 Computing Diagnostic #    702  TRAC43       Counter:       1   Parms: SMR     MR      
 Computing Diagnostic #    715  TRAC44       Counter:       1   Parms: SMR     MR      
 Computing Diagnostic #    728  TRAC45       Counter:       1   Parms: SMR     MR      
 Computing Diagnostic #    741  TRAC46       Counter:       1   Parms: SMR     MR      
 Computing Diagnostic #    754  TRAC47       Counter:       1   Parms: SMR     MR      
 Computing Diagnostic #    767  TRAC48       Counter:       1   Parms: SMR     MR      
 Computing Diagnostic #    780  TRAC49       Counter:       1   Parms: SMR     MR      
 Computing Diagnostic #    793  TRAC50       Counter:       1   Parms: SMR     MR      
 Computing Diagnostic #    806  TRAC51       Counter:       1   Parms: SMR     MR      
 Computing Diagnostic #    819  TRAC52       Counter:       1   Parms: SMR     MR      
 Computing Diagnostic #    832  TRAC53       Counter:       1   Parms: SMR     MR      
 Computing Diagnostic #    845  TRAC54       Counter:       1   Parms: SMR     MR      
 Computing Diagnostic #    858  TRAC55       Counter:       1   Parms: SMR     MR      
 Computing Diagnostic #    871  TRAC56       Counter:       1   Parms: SMR     MR      
 Computing Diagnostic #    884  TRAC57       Counter:       1   Parms: SMR     MR      
 Computing Diagnostic #    897  TRAC58       Counter:       1   Parms: SMR     MR      
 Computing Diagnostic #    910  TRAC59       Counter:       1   Parms: SMR     MR      
 Computing Diagnostic #    923  TRAC60       Counter:       1   Parms: SMR     MR      
 Computing Diagnostic #    936  TRAC61       Counter:       1   Parms: SMR     MR      
 Computing Diagnostic #    949  TRAC62       Counter:       1   Parms: SMR     MR      
 Computing Diagnostic #    962  TRAC63       Counter:       1   Parms: SMR     MR      
 Computing Diagnostic #    975  TRAC64       Counter:       1   Parms: SMR     MR      
 Computing Diagnostic #    988  TRAC65       Counter:       1   Parms: SMR     MR      
 Computing Diagnostic #   1001  TRAC66       Counter:       1   Parms: SMR     MR      
 Computing Diagnostic #   1014  TRAC67       Counter:       1   Parms: SMR     MR      
 Computing Diagnostic #   1027  TRAC68       Counter:       1   Parms: SMR     MR      
 Computing Diagnostic #   1040  TRAC69       Counter:       1   Parms: SMR     MR      
 Computing Diagnostic #   1053  TRAC70       Counter:       1   Parms: SMR     MR      
 Computing Diagnostic #   1066  TRAC71       Counter:       1   Parms: SMR     MR      
 Computing Diagnostic #   1079  TRAC72       Counter:       1   Parms: SMR     MR      
 Computing Diagnostic #   1092  TRAC73       Counter:       1   Parms: SMR     MR      
 Computing Diagnostic #   1105  TRAC74       Counter:       1   Parms: SMR     MR      
 Computing Diagnostic #   1118  TRAC75       Counter:       1   Parms: SMR     MR      
 Computing Diagnostic #   1131  TRAC76       Counter:       1   Parms: SMR     MR      
 Computing Diagnostic #   1144  TRAC77       Counter:       1   Parms: SMR     MR      
 Computing Diagnostic #   1157  TRAC78       Counter:       1   Parms: SMR     MR      
 Computing Diagnostic #   1170  TRAC79       Counter:       1   Parms: SMR     MR      
 Computing Diagnostic #   1183  TRAC80       Counter:       1   Parms: SMR     MR      
 Computing Diagnostic #   1201  PAR01        Counter:       3   Parms: SM P    MR      
 Computing Diagnostic #   1200  PARF         Counter:       3   Parms: SM P    MR      
 Computing Diagnostic #   1197  atten        Counter:       3   Parms: SM P    MR      
 Computing Diagnostic #   1199  surfPAR      Counter:       3   Parms: SM P    MR      
 Computing Diagnostic #   1198  exfPAR       Counter:       1   Parms: SM P    MR      
(PID.TID 0000.0001) %CHECKPOINT         4 ckptA
(PID.TID 0000.0001)   Seconds in section "ALL                    [THE_MODEL_MAIN]":
(PID.TID 0000.0001)           User time:   3.8300000000000001
(PID.TID 0000.0001)         System time:  0.15000000000000002
(PID.TID 0000.0001)     Wall clock time:   4.8343198299407959
(PID.TID 0000.0001)          No. starts:           1
(PID.TID 0000.0001)           No. stops:           1
(PID.TID 0000.0001)   Seconds in section "INITIALISE_FIXED       [THE_MODEL_MAIN]":
(PID.TID 0000.0001)           User time:   1.3900000000000001
(PID.TID 0000.0001)         System time:   3.0000000000000002E-002
(PID.TID 0000.0001)     Wall clock time:   1.5062940120697021
(PID.TID 0000.0001)          No. starts:           1
(PID.TID 0000.0001)           No. stops:           1
(PID.TID 0000.0001)   Seconds in section "THE_MAIN_LOOP          [THE_MODEL_MAIN]":
(PID.TID 0000.0001)           User time:   2.4399999999999999
(PID.TID 0000.0001)         System time:  0.12000000000000001
(PID.TID 0000.0001)     Wall clock time:   3.3203818798065186
(PID.TID 0000.0001)          No. starts:           1
(PID.TID 0000.0001)           No. stops:           1
(PID.TID 0000.0001)   Seconds in section "INITIALISE_VARIA    [THE_MAIN_LOOP]":
(PID.TID 0000.0001)           User time:   5.9999999999999831E-002
(PID.TID 0000.0001)         System time:   2.0000000000000004E-002
(PID.TID 0000.0001)     Wall clock time:  0.14734101295471191
(PID.TID 0000.0001)          No. starts:           1
(PID.TID 0000.0001)           No. stops:           1
(PID.TID 0000.0001)   Seconds in section "MAIN LOOP           [THE_MAIN_LOOP]":
(PID.TID 0000.0001)           User time:   2.3799999999999999
(PID.TID 0000.0001)         System time:  0.10000000000000001
(PID.TID 0000.0001)     Wall clock time:   3.1729950904846191
(PID.TID 0000.0001)          No. starts:           1
(PID.TID 0000.0001)           No. stops:           1
(PID.TID 0000.0001)   Seconds in section "FORWARD_STEP        [THE_MAIN_LOOP]":
(PID.TID 0000.0001)           User time:   2.3799999999999994
(PID.TID 0000.0001)         System time:  0.10000000000000001
(PID.TID 0000.0001)     Wall clock time:   3.1729121208190918
(PID.TID 0000.0001)          No. starts:           4
(PID.TID 0000.0001)           No. stops:           4
(PID.TID 0000.0001)   Seconds in section "DO_STATEVARS_DIAGS  [FORWARD_STEP]":
(PID.TID 0000.0001)           User time:   0.0000000000000000
(PID.TID 0000.0001)         System time:   0.0000000000000000
(PID.TID 0000.0001)     Wall clock time:   6.5960884094238281E-003
(PID.TID 0000.0001)          No. starts:           8
(PID.TID 0000.0001)           No. stops:           8
(PID.TID 0000.0001)   Seconds in section "LOAD_FIELDS_DRIVER  [FORWARD_STEP]":
(PID.TID 0000.0001)           User time:   1.0000000000000231E-002
(PID.TID 0000.0001)         System time:   0.0000000000000000
(PID.TID 0000.0001)     Wall clock time:   2.4253845214843750E-002
(PID.TID 0000.0001)          No. starts:           4
(PID.TID 0000.0001)           No. stops:           4
(PID.TID 0000.0001)   Seconds in section "EXF_GETFORCING     [LOAD_FLDS_DRIVER]":
(PID.TID 0000.0001)           User time:   0.0000000000000000
(PID.TID 0000.0001)         System time:   0.0000000000000000
(PID.TID 0000.0001)     Wall clock time:   3.8900375366210938E-003
(PID.TID 0000.0001)          No. starts:           4
(PID.TID 0000.0001)           No. stops:           4
(PID.TID 0000.0001)   Seconds in section "EXTERNAL_FLDS_LOAD [LOAD_FLDS_DRIVER]":
(PID.TID 0000.0001)           User time:   0.0000000000000000
(PID.TID 0000.0001)         System time:   0.0000000000000000
(PID.TID 0000.0001)     Wall clock time:   1.2360572814941406E-002
(PID.TID 0000.0001)          No. starts:           4
(PID.TID 0000.0001)           No. stops:           4
(PID.TID 0000.0001)   Seconds in section "DO_ATMOSPHERIC_PHYS [FORWARD_STEP]":
(PID.TID 0000.0001)           User time:   0.0000000000000000
(PID.TID 0000.0001)         System time:   0.0000000000000000
(PID.TID 0000.0001)     Wall clock time:   5.8889389038085938E-005
(PID.TID 0000.0001)          No. starts:           4
(PID.TID 0000.0001)           No. stops:           4
(PID.TID 0000.0001)   Seconds in section "DO_OCEANIC_PHYS     [FORWARD_STEP]":
(PID.TID 0000.0001)           User time:   1.0000000000000231E-002
(PID.TID 0000.0001)         System time:   0.0000000000000000
(PID.TID 0000.0001)     Wall clock time:   7.5547695159912109E-003
(PID.TID 0000.0001)          No. starts:           4
(PID.TID 0000.0001)           No. stops:           4
(PID.TID 0000.0001)   Seconds in section "KPP_CALC [DO_OCEANIC_PHYS]":
(PID.TID 0000.0001)           User time:   0.0000000000000000
(PID.TID 0000.0001)         System time:   0.0000000000000000
(PID.TID 0000.0001)     Wall clock time:   6.4406394958496094E-003
(PID.TID 0000.0001)          No. starts:           4
(PID.TID 0000.0001)           No. stops:           4
(PID.TID 0000.0001)   Seconds in section "GCHEM_CALC_TENDENCY [FORWARD_STEP]":
(PID.TID 0000.0001)           User time:   0.0000000000000000
(PID.TID 0000.0001)         System time:   0.0000000000000000
(PID.TID 0000.0001)     Wall clock time:   5.7697296142578125E-005
(PID.TID 0000.0001)          No. starts:           4
(PID.TID 0000.0001)           No. stops:           4
(PID.TID 0000.0001)   Seconds in section "THERMODYNAMICS      [FORWARD_STEP]":
(PID.TID 0000.0001)           User time:  0.24000000000000021
(PID.TID 0000.0001)         System time:   0.0000000000000000
(PID.TID 0000.0001)     Wall clock time:  0.23775362968444824
(PID.TID 0000.0001)          No. starts:           4
(PID.TID 0000.0001)           No. stops:           4
(PID.TID 0000.0001)   Seconds in section "TRC_CORRECTION_STEP [FORWARD_STEP]":
(PID.TID 0000.0001)           User time:   0.0000000000000000
(PID.TID 0000.0001)         System time:   0.0000000000000000
(PID.TID 0000.0001)     Wall clock time:   3.3953189849853516E-003
(PID.TID 0000.0001)          No. starts:           4
(PID.TID 0000.0001)           No. stops:           4
(PID.TID 0000.0001)   Seconds in section "GCHEM_FORCING_SEP  [FORWARD_STEP]":
(PID.TID 0000.0001)           User time:   9.0000000000000302E-002
(PID.TID 0000.0001)         System time:   0.0000000000000000
(PID.TID 0000.0001)     Wall clock time:   8.1307888031005859E-002
(PID.TID 0000.0001)          No. starts:           4
(PID.TID 0000.0001)           No. stops:           4
(PID.TID 0000.0001)   Seconds in section "DARWIN_FORCING [GCHEM_FORCING_SEP]":
(PID.TID 0000.0001)           User time:   5.9999999999999609E-002
(PID.TID 0000.0001)         System time:   0.0000000000000000
(PID.TID 0000.0001)     Wall clock time:   5.6782245635986328E-002
(PID.TID 0000.0001)          No. starts:          12
(PID.TID 0000.0001)           No. stops:          12
(PID.TID 0000.0001)   Seconds in section "DARWIN_LIGHT [DARWIN_FORCING]":
(PID.TID 0000.0001)           User time:   0.0000000000000000
(PID.TID 0000.0001)         System time:   0.0000000000000000
(PID.TID 0000.0001)     Wall clock time:   2.5484561920166016E-003
(PID.TID 0000.0001)          No. starts:          12
(PID.TID 0000.0001)           No. stops:          12
(PID.TID 0000.0001)   Seconds in section "DARWIN_FE_CHEM1 [DARWIN_FORCING]":
(PID.TID 0000.0001)           User time:   0.0000000000000000
(PID.TID 0000.0001)         System time:   0.0000000000000000
(PID.TID 0000.0001)     Wall clock time:   3.3926963806152344E-004
(PID.TID 0000.0001)          No. starts:          12
(PID.TID 0000.0001)           No. stops:          12
(PID.TID 0000.0001)   Seconds in section "DARWIN_MODEL [DARWIN_FORCING]":
(PID.TID 0000.0001)           User time:   0.0000000000000000
(PID.TID 0000.0001)         System time:   0.0000000000000000
(PID.TID 0000.0001)     Wall clock time:   5.3126811981201172E-003
(PID.TID 0000.0001)          No. starts:          12
(PID.TID 0000.0001)           No. stops:          12
(PID.TID 0000.0001)   Seconds in section "DARWIN_GRAZING [DARWIN_FORCING]":
(PID.TID 0000.0001)           User time:   0.0000000000000000
(PID.TID 0000.0001)         System time:   0.0000000000000000
(PID.TID 0000.0001)     Wall clock time:   3.5135746002197266E-003
(PID.TID 0000.0001)          No. starts:          12
(PID.TID 0000.0001)           No. stops:          12
(PID.TID 0000.0001)   Seconds in section "DARWIN_SINKING [DARWIN_FORCING]":
(PID.TID 0000.0001)           User time:   5.9999999999999609E-002
(PID.TID 0000.0001)         System time:   0.0000000000000000
(PID.TID 0000.0001)     Wall clock time:   4.3404817581176758E-002
(PID.TID 0000.0001)          No. starts:          12
(PID.TID 0000.0001)           No. stops:          12
(PID.TID 0000.0001)   Seconds in section "DIAGS_FILL [DARWIN_FORCING]":
(PID.TID 0000.0001)           User time:   0.0000000000000000
(PID.TID 0000.0001)         System time:   0.0000000000000000
(PID.TID 0000.0001)     Wall clock time:   3.8647651672363281E-004
(PID.TID 0000.0001)          No. starts:          12
(PID.TID 0000.0001)           No. stops:          12
(PID.TID 0000.0001)   Seconds in section "DARWIN_FE_CHEM1 [GCHEM_FORCING_SEP]":
(PID.TID 0000.0001)           User time:   0.0000000000000000
(PID.TID 0000.0001)         System time:   0.0000000000000000
(PID.TID 0000.0001)     Wall clock time:   3.5810470581054688E-004
(PID.TID 0000.0001)          No. starts:          12
(PID.TID 0000.0001)           No. stops:          12
(PID.TID 0000.0001)   Seconds in section "BLOCKING_EXCHANGES  [FORWARD_STEP]":
(PID.TID 0000.0001)           User time:   0.0000000000000000
(PID.TID 0000.0001)         System time:   0.0000000000000000
(PID.TID 0000.0001)     Wall clock time:   1.1405467987060547E-002
(PID.TID 0000.0001)          No. starts:           4
(PID.TID 0000.0001)           No. stops:           4
(PID.TID 0000.0001)   Seconds in section "DO_STATEVARS_TAVE   [FORWARD_STEP]":
(PID.TID 0000.0001)           User time:   0.0000000000000000
(PID.TID 0000.0001)         System time:   0.0000000000000000
(PID.TID 0000.0001)     Wall clock time:   5.1498413085937500E-004
(PID.TID 0000.0001)          No. starts:           4
(PID.TID 0000.0001)           No. stops:           4
(PID.TID 0000.0001)   Seconds in section "MONITOR             [FORWARD_STEP]":
(PID.TID 0000.0001)           User time:   0.0000000000000000
(PID.TID 0000.0001)         System time:   0.0000000000000000
(PID.TID 0000.0001)     Wall clock time:   4.5678615570068359E-003
(PID.TID 0000.0001)          No. starts:           4
(PID.TID 0000.0001)           No. stops:           4
(PID.TID 0000.0001)   Seconds in section "DO_THE_MODEL_IO     [FORWARD_STEP]":
(PID.TID 0000.0001)           User time:   2.0199999999999991
(PID.TID 0000.0001)         System time:   8.9999999999999997E-002
(PID.TID 0000.0001)     Wall clock time:   2.6607537269592285
(PID.TID 0000.0001)          No. starts:           4
(PID.TID 0000.0001)           No. stops:           4
(PID.TID 0000.0001)   Seconds in section "DO_WRITE_PICKUP     [FORWARD_STEP]":
(PID.TID 0000.0001)           User time:   9.9999999999997868E-003
(PID.TID 0000.0001)         System time:   1.0000000000000009E-002
(PID.TID 0000.0001)     Wall clock time:  0.13376903533935547
(PID.TID 0000.0001)          No. starts:           4
(PID.TID 0000.0001)           No. stops:           4
(PID.TID 0000.0001) // ======================================================
(PID.TID 0000.0001) // Tile <-> Tile communication statistics
(PID.TID 0000.0001) // ======================================================
(PID.TID 0000.0001) // o Tile number: 000001
(PID.TID 0000.0001) //         No. X exchanges =              0
(PID.TID 0000.0001) //            Max. X spins =              0
(PID.TID 0000.0001) //            Min. X spins =     1000000000
(PID.TID 0000.0001) //          Total. X spins =              0
(PID.TID 0000.0001) //            Avg. X spins =       0.00E+00
(PID.TID 0000.0001) //         No. Y exchanges =              0
(PID.TID 0000.0001) //            Max. Y spins =              0
(PID.TID 0000.0001) //            Min. Y spins =     1000000000
(PID.TID 0000.0001) //          Total. Y spins =              0
(PID.TID 0000.0001) //            Avg. Y spins =       0.00E+00
(PID.TID 0000.0001) // o Thread number: 000001
(PID.TID 0000.0001) //            No. barriers =          13668
(PID.TID 0000.0001) //      Max. barrier spins =              1
(PID.TID 0000.0001) //      Min. barrier spins =              1
(PID.TID 0000.0001) //     Total barrier spins =          13668
(PID.TID 0000.0001) //      Avg. barrier spins =       1.00E+00
PROGRAM MAIN: Execution ended Normally
