(PID.TID 0000.0001) 
(PID.TID 0000.0001) // ======================================================
(PID.TID 0000.0001) //                      MITgcm UV
(PID.TID 0000.0001) //                      =========
(PID.TID 0000.0001) // ======================================================
(PID.TID 0000.0001) // execution environment starting up...
(PID.TID 0000.0001) 
(PID.TID 0000.0001) // Build user:        jahn
(PID.TID 0000.0001) // Build host:        saramago.mit.edu
(PID.TID 0000.0001) // Build date:        Fri Jan 25 22:38:55 EST 2013
(PID.TID 0000.0001) 
(PID.TID 0000.0001) // =======================================================
(PID.TID 0000.0001) // Execution Environment parameter file "eedata"
(PID.TID 0000.0001) // =======================================================
(PID.TID 0000.0001) ># Example "eedata" file
(PID.TID 0000.0001) ># Lines beginning "#" are comments
(PID.TID 0000.0001) ># nTx - No. threads per process in X
(PID.TID 0000.0001) ># nTy - No. threads per process in Y
(PID.TID 0000.0001) > &EEPARMS
(PID.TID 0000.0001) > nTx=1,nTy=1
(PID.TID 0000.0001) > /
(PID.TID 0000.0001) ># Note: Some systems use & as the
(PID.TID 0000.0001) ># namelist terminator. Other systems
(PID.TID 0000.0001) ># use a / character (as shown here).
(PID.TID 0000.0001) 
(PID.TID 0000.0001) // =======================================================
(PID.TID 0000.0001) // Computational Grid Specification ( see files "SIZE.h" )
(PID.TID 0000.0001) //                                  ( and "eedata"       )
(PID.TID 0000.0001) // =======================================================
(PID.TID 0000.0001)      nPx =    1 ; /* No. processes in X */
(PID.TID 0000.0001)      nPy =    1 ; /* No. processes in Y */
(PID.TID 0000.0001)      nSx =    2 ; /* No. tiles in X per process */
(PID.TID 0000.0001)      nSy =    1 ; /* No. tiles in Y per process */
(PID.TID 0000.0001)      sNx =   64 ; /* Tile size in X */
(PID.TID 0000.0001)      sNy =   64 ; /* Tile size in Y */
(PID.TID 0000.0001)      OLx =    4 ; /* Tile overlap distance in X */
(PID.TID 0000.0001)      OLy =    4 ; /* Tile overlap distance in Y */
(PID.TID 0000.0001)      nTx =    1 ; /* No. threads in X per process */
(PID.TID 0000.0001)      nTy =    1 ; /* No. threads in Y per process */
(PID.TID 0000.0001)       Nr =   15 ; /* No. levels in the vertical   */
(PID.TID 0000.0001)       Nx =  128 ; /* Total domain size in X ( = nPx*nSx*sNx ) */
(PID.TID 0000.0001)       Ny =   64 ; /* Total domain size in Y ( = nPy*nSy*sNy ) */
(PID.TID 0000.0001)   nTiles =    2 ; /* Total no. tiles per process ( = nSx*nSy ) */
(PID.TID 0000.0001)   nProcs =    1 ; /* Total no. processes ( = nPx*nPy ) */
(PID.TID 0000.0001) nThreads =    1 ; /* Total no. threads per process ( = nTx*nTy ) */
(PID.TID 0000.0001) usingMPI =    F ; /* Flag used to control whether MPI is in use */
(PID.TID 0000.0001)                   /*  note: To execute a program with MPI calls */
(PID.TID 0000.0001)                   /*  it must be launched appropriately e.g     */
(PID.TID 0000.0001)                   /*  "mpirun -np 64 ......"                    */
(PID.TID 0000.0001) useCoupler=    F ;/* Flag used to control communications with   */
(PID.TID 0000.0001)                   /*  other model components, through a coupler */
(PID.TID 0000.0001) debugMode =    F ; /* print debug msg. (sequence of S/R calls)  */
(PID.TID 0000.0001) printMapIncludesZeros=    F ; /* print zeros in Std.Output maps */
(PID.TID 0000.0001) maxLengthPrt1D=   65 /* maxLength of 1D array printed to StdOut */
(PID.TID 0000.0001) 
(PID.TID 0000.0001) // ======================================================
(PID.TID 0000.0001) // Mapping of tiles to threads
(PID.TID 0000.0001) // ======================================================
(PID.TID 0000.0001) // -o- Thread   1, tiles (   1:   2,   1:   1)
(PID.TID 0000.0001) 
(PID.TID 0000.0001) // ======================================================
(PID.TID 0000.0001) // Tile <-> Tile connectvity table
(PID.TID 0000.0001) // ======================================================
(PID.TID 0000.0001) // Tile number: 000001 (process no. = 000000)
(PID.TID 0000.0001) //        WEST: Tile = 000002, Process = 000000, Comm = put
(PID.TID 0000.0001) //                bi = 000002, bj = 000001
(PID.TID 0000.0001) //        EAST: Tile = 000002, Process = 000000, Comm = put
(PID.TID 0000.0001) //                bi = 000002, bj = 000001
(PID.TID 0000.0001) //       SOUTH: Tile = 000001, Process = 000000, Comm = put
(PID.TID 0000.0001) //                bi = 000001, bj = 000001
(PID.TID 0000.0001) //       NORTH: Tile = 000001, Process = 000000, Comm = put
(PID.TID 0000.0001) //                bi = 000001, bj = 000001
(PID.TID 0000.0001) // Tile number: 000002 (process no. = 000000)
(PID.TID 0000.0001) //        WEST: Tile = 000001, Process = 000000, Comm = put
(PID.TID 0000.0001) //                bi = 000001, bj = 000001
(PID.TID 0000.0001) //        EAST: Tile = 000001, Process = 000000, Comm = put
(PID.TID 0000.0001) //                bi = 000001, bj = 000001
(PID.TID 0000.0001) //       SOUTH: Tile = 000002, Process = 000000, Comm = put
(PID.TID 0000.0001) //                bi = 000002, bj = 000001
(PID.TID 0000.0001) //       NORTH: Tile = 000002, Process = 000000, Comm = put
(PID.TID 0000.0001) //                bi = 000002, bj = 000001
(PID.TID 0000.0001) 
(PID.TID 0000.0001)  INI_PARMS: opening model parameter file "data"
(PID.TID 0000.0001)  OPEN_COPY_DATA_FILE: opening file data
(PID.TID 0000.0001) // =======================================================
(PID.TID 0000.0001) // Parameter file "data"
(PID.TID 0000.0001) // =======================================================
(PID.TID 0000.0001) ># ====================
(PID.TID 0000.0001) ># | Model parameters |
(PID.TID 0000.0001) ># ====================
(PID.TID 0000.0001) >#
(PID.TID 0000.0001) ># Continuous equation parameters
(PID.TID 0000.0001) > &PARM01
(PID.TID 0000.0001) > tRef=15*20.,
(PID.TID 0000.0001) > sRef=15*35.,
(PID.TID 0000.0001) > viscA4=0.,
(PID.TID 0000.0001) > viscAh=5.E5,
(PID.TID 0000.0001) > diffKhT=0.E3,
(PID.TID 0000.0001) > diffKhS=0.E3,
(PID.TID 0000.0001) > viscAz=1.E-3,
(PID.TID 0000.0001) > diffKzT=5.E-5,
(PID.TID 0000.0001) > diffKzS=5.E-5,
(PID.TID 0000.0001) > beta=1.E-11,
(PID.TID 0000.0001) > f0=1.e-4,
(PID.TID 0000.0001) > tAlpha=2.E-4,
(PID.TID 0000.0001) > sBeta =7.4E-4,
(PID.TID 0000.0001) > gravity=9.81,
(PID.TID 0000.0001) > gBaro=9.81,
(PID.TID 0000.0001) > rhonil=1035.,
(PID.TID 0000.0001) > rigidLid=.FALSE.,
(PID.TID 0000.0001) > implicitFreeSurface=.TRUE.,
(PID.TID 0000.0001) > eosType='POLY3',
(PID.TID 0000.0001) > implicitDiffusion=.TRUE.,
(PID.TID 0000.0001) > implicitViscosity=.TRUE.,
(PID.TID 0000.0001) > ivdc_kappa=100.,
(PID.TID 0000.0001) > tempAdvScheme       = 2
(PID.TID 0000.0001) > saltAdvScheme       = 2
(PID.TID 0000.0001) > tempStepping        = .TRUE.
(PID.TID 0000.0001) > saltStepping        = .TRUE.
(PID.TID 0000.0001) > multiDimAdvection   = .FALSE.
(PID.TID 0000.0001) > allowFreezing=.TRUE.,
(PID.TID 0000.0001) > useCDscheme=.TRUE.,
(PID.TID 0000.0001) >#usePickupBeforeC54=.TRUE.,
(PID.TID 0000.0001) > writeBinaryPrec= 64,
(PID.TID 0000.0001) > /
(PID.TID 0000.0001) >
(PID.TID 0000.0001) ># Elliptic solver parameters
(PID.TID 0000.0001) > &PARM02
(PID.TID 0000.0001) > cg2dMaxIters=1000,
(PID.TID 0000.0001) > cg2dTargetResidual=1.E-13,
(PID.TID 0000.0001) > /
(PID.TID 0000.0001) >
(PID.TID 0000.0001) ># Time stepping parameters
(PID.TID 0000.0001) > &PARM03
(PID.TID 0000.0001) > nIter0=5644800,
(PID.TID 0000.0001) > nTimeSteps = 4,
(PID.TID 0000.0001) >#nTimeSteps = 7200,
(PID.TID 0000.0001) > deltaTmom = 900.0,
(PID.TID 0000.0001) > tauCD =     321428.,
(PID.TID 0000.0001) > deltaTtracer= 43200.0,
(PID.TID 0000.0001) > deltaTClock = 43200.0,
(PID.TID 0000.0001) > abEps = 0.1,
(PID.TID 0000.0001) > pickupStrictlyMatch=.FALSE.,
(PID.TID 0000.0001) > pChkptFreq=311040000.,
(PID.TID 0000.0001) > chkptFreq= 311040000.,
(PID.TID 0000.0001) > dumpFreq=  31104000.,
(PID.TID 0000.0001) > taveFreq=  2592000.,
(PID.TID 0000.0001) >#taveFreq=  31104000.,
(PID.TID 0000.0001) >#monitorFreq= 31104000.,
(PID.TID 0000.0001) > monitorFreq= 43200.0,
(PID.TID 0000.0001) >#monitorFreq= 2592000.,
(PID.TID 0000.0001) > tauThetaClimRelax = 5184000.0,
(PID.TID 0000.0001) > tauSaltClimRelax =  7776000.0,
(PID.TID 0000.0001) > periodicExternalForcing=.TRUE.,
(PID.TID 0000.0001) > externForcingPeriod=2592000.,
(PID.TID 0000.0001) > externForcingCycle=31104000.,
(PID.TID 0000.0001) > /
(PID.TID 0000.0001) >
(PID.TID 0000.0001) ># Gridding parameters
(PID.TID 0000.0001) > &PARM04
(PID.TID 0000.0001) > usingCartesianGrid=.FALSE.,
(PID.TID 0000.0001) > usingSphericalPolarGrid=.TRUE.,
(PID.TID 0000.0001) > delZ= 50., 70., 100., 140., 190.,
(PID.TID 0000.0001) >       240., 290., 340., 390., 440.,
(PID.TID 0000.0001) >       490., 540., 590., 640., 690.,
(PID.TID 0000.0001) > ygOrigin=-90.,
(PID.TID 0000.0001) > delX=128*2.8125,
(PID.TID 0000.0001) > delY=64*2.8125,
(PID.TID 0000.0001) > /
(PID.TID 0000.0001) >
(PID.TID 0000.0001) ># Input datasets
(PID.TID 0000.0001) > &PARM05
(PID.TID 0000.0001) > bathyFile=      '../input/input_ocmip/depth_g77.bin',
(PID.TID 0000.0001) > hydrogThetaFile='../input/input_ocmip/lev_clim_temp.bin',
(PID.TID 0000.0001) > hydrogSaltFile= '../input/input_ocmip/lev_clim_salt.bin',
(PID.TID 0000.0001) > zonalWindFile=  '../input/input_ocmip/tren_taux.bin',
(PID.TID 0000.0001) > meridWindFile=  '../input/input_ocmip/tren_tauy.bin',
(PID.TID 0000.0001) > thetaClimFile=  '../input/input_ocmip/lev_monthly_temp.bin',
(PID.TID 0000.0001) > saltClimFile=   '../input/input_ocmip/lev_monthly_salt.bin',
(PID.TID 0000.0001) > surfQFile=      '../input/input_ocmip/shi_qnet.bin',
(PID.TID 0000.0001) > EmPmRFile=      '../input/input_ocmip/shi_empmr_year.bin',
(PID.TID 0000.0001) > the_run_name=   'Darwin12',
(PID.TID 0000.0001) > /
(PID.TID 0000.0001) 
(PID.TID 0000.0001)  INI_PARMS ; starts to read PARM01
(PID.TID 0000.0001)  INI_PARMS ; read PARM01 : OK
(PID.TID 0000.0001)  INI_PARMS ; starts to read PARM02
(PID.TID 0000.0001)  INI_PARMS ; read PARM02 : OK
(PID.TID 0000.0001)  INI_PARMS ; starts to read PARM03
(PID.TID 0000.0001)  INI_PARMS ; read PARM03 : OK
(PID.TID 0000.0001)  INI_PARMS ; starts to read PARM04
(PID.TID 0000.0001)  INI_PARMS ; read PARM04 : OK
(PID.TID 0000.0001)  INI_PARMS ; starts to read PARM05
(PID.TID 0000.0001)  INI_PARMS ; read PARM05 : OK
(PID.TID 0000.0001)  INI_PARMS: finished reading file "data"
(PID.TID 0000.0001)  PACKAGES_BOOT: opening data.pkg
(PID.TID 0000.0001)  OPEN_COPY_DATA_FILE: opening file data.pkg
(PID.TID 0000.0001) // =======================================================
(PID.TID 0000.0001) // Parameter file "data.pkg"
(PID.TID 0000.0001) // =======================================================
(PID.TID 0000.0001) ># Packages
(PID.TID 0000.0001) > &PACKAGES
(PID.TID 0000.0001) > useGMRedi=.TRUE.
(PID.TID 0000.0001) > usePTRACERS=.TRUE.
(PID.TID 0000.0001) > useGCHEM=.TRUE.,
(PID.TID 0000.0001) > useEXF=.TRUE.,
(PID.TID 0000.0001) > useDIAGNOSTICS=.TRUE.,
(PID.TID 0000.0001) > useMNC=.TRUE.,
(PID.TID 0000.0001) > /
(PID.TID 0000.0001) 
(PID.TID 0000.0001)  PACKAGES_BOOT: finished reading data.pkg
(PID.TID 0000.0001)  MNC_READPARMS: opening file 'data.mnc'
(PID.TID 0000.0001)  OPEN_COPY_DATA_FILE: opening file data.mnc
(PID.TID 0000.0001) // =======================================================
(PID.TID 0000.0001) // Parameter file "data.mnc"
(PID.TID 0000.0001) // =======================================================
(PID.TID 0000.0001) ># Example "data.mnc" file
(PID.TID 0000.0001) ># Lines beginning "#" are comments
(PID.TID 0000.0001) > &MNC_01
(PID.TID 0000.0001) ># mnc_echo_gvtypes=.FALSE.,
(PID.TID 0000.0001) ># mnc_use_indir=.FALSE.,
(PID.TID 0000.0001) ># mnc_use_outdir=.TRUE.,
(PID.TID 0000.0001) > mnc_outdir_str='ocmip_darwin_',
(PID.TID 0000.0001) > mnc_outdir_date=.TRUE.,
(PID.TID 0000.0001) > monitor_mnc=.FALSE.,
(PID.TID 0000.0001) > snapshot_mnc=.TRUE.,
(PID.TID 0000.0001) > timeave_mnc=.TRUE.,
(PID.TID 0000.0001) > pickup_read_mnc=.FALSE.,
(PID.TID 0000.0001) > pickup_write_mnc=.FALSE.,
(PID.TID 0000.0001) > /
(PID.TID 0000.0001) ># Note: Some systems use & as the
(PID.TID 0000.0001) ># namelist terminator. Other systems
(PID.TID 0000.0001) ># use a / character.
(PID.TID 0000.0001) 
(PID.TID 0000.0001)  MNC_READPARMS: finished reading data.mnc
(PID.TID 0000.0001) CAL_READPARMS: opening data.cal
(PID.TID 0000.0001)  OPEN_COPY_DATA_FILE: opening file data.cal
(PID.TID 0000.0001) // =======================================================
(PID.TID 0000.0001) // Parameter file "data.cal"
(PID.TID 0000.0001) // =======================================================
(PID.TID 0000.0001) >#
(PID.TID 0000.0001) ># *******************
(PID.TID 0000.0001) ># Calendar Parameters
(PID.TID 0000.0001) ># *******************
(PID.TID 0000.0001) > &CAL_NML
(PID.TID 0000.0001) > TheCalendar='model',
(PID.TID 0000.0001) > startDate_1=19920101,
(PID.TID 0000.0001) > startDate_2=000000,
(PID.TID 0000.0001) > calendarDumps = .TRUE.
(PID.TID 0000.0001) > /
(PID.TID 0000.0001) 
(PID.TID 0000.0001) CAL_READPARMS: finished reading data.cal
(PID.TID 0000.0001) EXF_READPARMS: opening data.exf
(PID.TID 0000.0001)  OPEN_COPY_DATA_FILE: opening file data.exf
(PID.TID 0000.0001) // =======================================================
(PID.TID 0000.0001) // Parameter file "data.exf"
(PID.TID 0000.0001) // =======================================================
(PID.TID 0000.0001) ># *********************
(PID.TID 0000.0001) ># External Forcing Data
(PID.TID 0000.0001) ># *********************
(PID.TID 0000.0001) >#
(PID.TID 0000.0001) > &EXF_NML_01
(PID.TID 0000.0001) > exf_albedo        = 0.15,
(PID.TID 0000.0001) > exf_iprec         = 32,
(PID.TID 0000.0001) > exf_yftype        = 'RL',
(PID.TID 0000.0001) > useExfYearlyFields= .TRUE.,
(PID.TID 0000.0001) > twoDigitYear      = .TRUE.,
(PID.TID 0000.0001) > useExfCheckRange  = .FALSE.,
(PID.TID 0000.0001) > /
(PID.TID 0000.0001) >#
(PID.TID 0000.0001) > &EXF_NML_02
(PID.TID 0000.0001) > /
(PID.TID 0000.0001) >#
(PID.TID 0000.0001) > &EXF_NML_03
(PID.TID 0000.0001) > /
(PID.TID 0000.0001) >#
(PID.TID 0000.0001) > &EXF_NML_04
(PID.TID 0000.0001) > /
(PID.TID 0000.0001) >#
(PID.TID 0000.0001) > &EXF_NML_OBCS
(PID.TID 0000.0001) > /
(PID.TID 0000.0001) 
(PID.TID 0000.0001) EXF_READPARMS: reading EXF_NML_01
(PID.TID 0000.0001) EXF_READPARMS: reading EXF_NML_02
(PID.TID 0000.0001) EXF_READPARMS: reading EXF_NML_03
(PID.TID 0000.0001) EXF_READPARMS: finished reading data.exf
(PID.TID 0000.0001)  GM_READPARMS: opening data.gmredi
(PID.TID 0000.0001)  OPEN_COPY_DATA_FILE: opening file data.gmredi
(PID.TID 0000.0001) // =======================================================
(PID.TID 0000.0001) // Parameter file "data.gmredi"
(PID.TID 0000.0001) // =======================================================
(PID.TID 0000.0001) ># GM+Redi package parameters:
(PID.TID 0000.0001) >#     GM_Small_Number  :: epsilon used in computing the slope
(PID.TID 0000.0001) >#     GM_slopeSqCutoff :: slope^2 cut-off value
(PID.TID 0000.0001) >
(PID.TID 0000.0001) >#-from MOM :
(PID.TID 0000.0001) ># GM_background_K:      G & Mc.W  diffusion coefficient
(PID.TID 0000.0001) ># GM_maxSlope    :      max slope of isopycnals
(PID.TID 0000.0001) ># GM_Scrit       :      transition for scaling diffusion coefficient
(PID.TID 0000.0001) ># GM_Sd          :      half width scaling for diffusion coefficient
(PID.TID 0000.0001) ># GM_taper_scheme:      slope clipping or one of the tapering schemes
(PID.TID 0000.0001) ># GM_Kmin_horiz  :      horizontal diffusion minimum value
(PID.TID 0000.0001) >
(PID.TID 0000.0001) >#-Option parameters (needs to "define" options in GMREDI_OPTIONS.h")
(PID.TID 0000.0001) ># GM_isopycK     :      isopycnal diffusion coefficient
(PID.TID 0000.0001) >(default=GM_background_K)
(PID.TID 0000.0001) ># GM_AdvForm     :      turn on GM Advective form       (default=Skew flux
(PID.TID 0000.0001) >form)
(PID.TID 0000.0001) >
(PID.TID 0000.0001) > &GM_PARM01
(PID.TID 0000.0001) >  GM_Small_Number    = 1.D-20,
(PID.TID 0000.0001) >  GM_slopeSqCutoff   = 1.D+08,
(PID.TID 0000.0001) >  GM_AdvForm         = .FALSE.,
(PID.TID 0000.0001) >  GM_isopycK         = 1.D+3,
(PID.TID 0000.0001) >  GM_background_K    = 1.D+3,
(PID.TID 0000.0001) >  GM_maxSlope        = 1.D-2,
(PID.TID 0000.0001) >  GM_taper_scheme    = 'dm95',
(PID.TID 0000.0001) >  GM_Kmin_horiz      = 50.,
(PID.TID 0000.0001) >  GM_Scrit           = 4.D-3,
(PID.TID 0000.0001) >  GM_Sd              = 1.D-3,
(PID.TID 0000.0001) >#
(PID.TID 0000.0001) >###  GM_Visbeck_alpha   = 1.5D-2,
(PID.TID 0000.0001) >###  GM_Visbeck_alpha   = 0.D0,
(PID.TID 0000.0001) >###  GM_Visbeck_length  = 2.D+5,
(PID.TID 0000.0001) >###  GM_Visbeck_depth   = 1.D+3,
(PID.TID 0000.0001) >###  GM_Visbeck_maxval_K= 2.5D+3,
(PID.TID 0000.0001) > /
(PID.TID 0000.0001) >
(PID.TID 0000.0001) 
(PID.TID 0000.0001)  GM_READPARMS: finished reading data.gmredi
(PID.TID 0000.0001)  PTRACERS_READPARMS: opening data.ptracers
(PID.TID 0000.0001)  OPEN_COPY_DATA_FILE: opening file data.ptracers
(PID.TID 0000.0001) // =======================================================
(PID.TID 0000.0001) // Parameter file "data.ptracers"
(PID.TID 0000.0001) // =======================================================
(PID.TID 0000.0001) > &PTRACERS_PARM01
(PID.TID 0000.0001) > PTRACERS_numInUse=97,
(PID.TID 0000.0001) > PTRACERS_Iter0= 5644800,
(PID.TID 0000.0001) > PTRACERS_advScheme= 97*33,
(PID.TID 0000.0001) > PTRACERS_diffKh=    97*0.E3,
(PID.TID 0000.0001) > PTRACERS_diffKr=    97*1.E-5,
(PID.TID 0000.0001) > PTRACERS_useGMRedi= 97*.TRUE. ,
(PID.TID 0000.0001) >#
(PID.TID 0000.0001) >       PTRACERS_names(1)= 'DIC',
(PID.TID 0000.0001) >       PTRACERS_names(2)= 'NH4',
(PID.TID 0000.0001) >       PTRACERS_names(3)= 'NO2',
(PID.TID 0000.0001) >       PTRACERS_names(4)= 'NO3',
(PID.TID 0000.0001) >       PTRACERS_names(5)= 'PO4',
(PID.TID 0000.0001) >       PTRACERS_names(6)= 'SiO2',
(PID.TID 0000.0001) >       PTRACERS_names(7)= 'FeT',
(PID.TID 0000.0001) >       PTRACERS_names(8)= 'DOC',
(PID.TID 0000.0001) >       PTRACERS_names(9)= 'DON',
(PID.TID 0000.0001) >       PTRACERS_names(10)= 'DOP',
(PID.TID 0000.0001) >       PTRACERS_names(11)= 'DOFe',
(PID.TID 0000.0001) >       PTRACERS_names(12)= 'POC',
(PID.TID 0000.0001) >       PTRACERS_names(13)= 'PON',
(PID.TID 0000.0001) >       PTRACERS_names(14)= 'POP',
(PID.TID 0000.0001) >       PTRACERS_names(15)= 'POSi',
(PID.TID 0000.0001) >       PTRACERS_names(16)= 'POFe',
(PID.TID 0000.0001) >       PTRACERS_names(17)= 'PIC',
(PID.TID 0000.0001) >       PTRACERS_names(18)= 'c01',
(PID.TID 0000.0001) >       PTRACERS_names(19)= 'c02',
(PID.TID 0000.0001) >       PTRACERS_names(20)= 'c03',
(PID.TID 0000.0001) >       PTRACERS_names(21)= 'c04',
(PID.TID 0000.0001) >       PTRACERS_names(22)= 'c05',
(PID.TID 0000.0001) >       PTRACERS_names(23)= 'c06',
(PID.TID 0000.0001) >       PTRACERS_names(24)= 'c07',
(PID.TID 0000.0001) >       PTRACERS_names(25)= 'c08',
(PID.TID 0000.0001) >       PTRACERS_names(26)= 'c09',
(PID.TID 0000.0001) >       PTRACERS_names(27)= 'c10',
(PID.TID 0000.0001) >       PTRACERS_names(28)= 'c11',
(PID.TID 0000.0001) >       PTRACERS_names(29)= 'c12',
(PID.TID 0000.0001) >       PTRACERS_names(30)= 'c13',
(PID.TID 0000.0001) >       PTRACERS_names(31)= 'c14',
(PID.TID 0000.0001) >       PTRACERS_names(32)= 'c15',
(PID.TID 0000.0001) >       PTRACERS_names(33)= 'c16',
(PID.TID 0000.0001) >       PTRACERS_names(34)= 'c17',
(PID.TID 0000.0001) >       PTRACERS_names(35)= 'c18',
(PID.TID 0000.0001) >       PTRACERS_names(36)= 'c19',
(PID.TID 0000.0001) >       PTRACERS_names(37)= 'c20',
(PID.TID 0000.0001) >       PTRACERS_names(38)= 'c21',
(PID.TID 0000.0001) >       PTRACERS_names(39)= 'c22',
(PID.TID 0000.0001) >       PTRACERS_names(40)= 'c23',
(PID.TID 0000.0001) >       PTRACERS_names(41)= 'c24',
(PID.TID 0000.0001) >       PTRACERS_names(42)= 'c25',
(PID.TID 0000.0001) >       PTRACERS_names(43)= 'c26',
(PID.TID 0000.0001) >       PTRACERS_names(44)= 'c27',
(PID.TID 0000.0001) >       PTRACERS_names(45)= 'c28',
(PID.TID 0000.0001) >       PTRACERS_names(46)= 'c29',
(PID.TID 0000.0001) >       PTRACERS_names(47)= 'c30',
(PID.TID 0000.0001) >       PTRACERS_names(48)= 'c31',
(PID.TID 0000.0001) >       PTRACERS_names(49)= 'c32',
(PID.TID 0000.0001) >       PTRACERS_names(50)= 'c33',
(PID.TID 0000.0001) >       PTRACERS_names(51)= 'c34',
(PID.TID 0000.0001) >       PTRACERS_names(52)= 'c35',
(PID.TID 0000.0001) >       PTRACERS_names(53)= 'c36',
(PID.TID 0000.0001) >       PTRACERS_names(54)= 'c37',
(PID.TID 0000.0001) >       PTRACERS_names(55)= 'c38',
(PID.TID 0000.0001) >       PTRACERS_names(56)= 'c39',
(PID.TID 0000.0001) >       PTRACERS_names(57)= 'c40',
(PID.TID 0000.0001) >       PTRACERS_names(58)= 'c41',
(PID.TID 0000.0001) >       PTRACERS_names(59)= 'c42',
(PID.TID 0000.0001) >       PTRACERS_names(60)= 'c43',
(PID.TID 0000.0001) >       PTRACERS_names(61)= 'c44',
(PID.TID 0000.0001) >       PTRACERS_names(62)= 'c45',
(PID.TID 0000.0001) >       PTRACERS_names(63)= 'c46',
(PID.TID 0000.0001) >       PTRACERS_names(64)= 'c47',
(PID.TID 0000.0001) >       PTRACERS_names(65)= 'c48',
(PID.TID 0000.0001) >       PTRACERS_names(66)= 'c49',
(PID.TID 0000.0001) >       PTRACERS_names(67)= 'c50',
(PID.TID 0000.0001) >       PTRACERS_names(68)= 'c51',
(PID.TID 0000.0001) >       PTRACERS_names(69)= 'c52',
(PID.TID 0000.0001) >       PTRACERS_names(70)= 'c53',
(PID.TID 0000.0001) >       PTRACERS_names(71)= 'c54',
(PID.TID 0000.0001) >       PTRACERS_names(72)= 'c55',
(PID.TID 0000.0001) >       PTRACERS_names(73)= 'c56',
(PID.TID 0000.0001) >       PTRACERS_names(74)= 'c57',
(PID.TID 0000.0001) >       PTRACERS_names(75)= 'c58',
(PID.TID 0000.0001) >       PTRACERS_names(76)= 'c59',
(PID.TID 0000.0001) >       PTRACERS_names(77)= 'c60',
(PID.TID 0000.0001) >       PTRACERS_names(78)= 'c61',
(PID.TID 0000.0001) >       PTRACERS_names(79)= 'c62',
(PID.TID 0000.0001) >       PTRACERS_names(80)= 'c63',
(PID.TID 0000.0001) >       PTRACERS_names(81)= 'c64',
(PID.TID 0000.0001) >       PTRACERS_names(82)= 'c65',
(PID.TID 0000.0001) >       PTRACERS_names(83)= 'c66',
(PID.TID 0000.0001) >       PTRACERS_names(84)= 'c67',
(PID.TID 0000.0001) >       PTRACERS_names(85)= 'c68',
(PID.TID 0000.0001) >       PTRACERS_names(86)= 'c69',
(PID.TID 0000.0001) >       PTRACERS_names(87)= 'c70',
(PID.TID 0000.0001) >       PTRACERS_names(88)= 'c71',
(PID.TID 0000.0001) >       PTRACERS_names(89)= 'c72',
(PID.TID 0000.0001) >       PTRACERS_names(90)= 'c73',
(PID.TID 0000.0001) >       PTRACERS_names(91)= 'c74',
(PID.TID 0000.0001) >       PTRACERS_names(92)= 'c75',
(PID.TID 0000.0001) >       PTRACERS_names(93)= 'c76',
(PID.TID 0000.0001) >       PTRACERS_names(94)= 'c77',
(PID.TID 0000.0001) >       PTRACERS_names(95)= 'c78',
(PID.TID 0000.0001) > PTRACERS_names(96)= 'zc1',
(PID.TID 0000.0001) > PTRACERS_names(97)= 'zc2',
(PID.TID 0000.0001) >#
(PID.TID 0000.0001) > PTRACERS_units(1)='mmol C/m^3'
(PID.TID 0000.0001) > PTRACERS_units(2)='mmol N/m^3'
(PID.TID 0000.0001) > PTRACERS_units(3)='mmol N/m^3'
(PID.TID 0000.0001) > PTRACERS_units(4)='mmol N/m^3'
(PID.TID 0000.0001) > PTRACERS_units(5)='mmol P/m^3'
(PID.TID 0000.0001) > PTRACERS_units(6)='mmol Si/m^3'
(PID.TID 0000.0001) > PTRACERS_units(7)='mmol Fe/m^3'
(PID.TID 0000.0001) > PTRACERS_units(8)='mmol C/m^3'
(PID.TID 0000.0001) > PTRACERS_units(9)='mmol N/m^3'
(PID.TID 0000.0001) > PTRACERS_units(10)='mmol P/m^3'
(PID.TID 0000.0001) > PTRACERS_units(11)='mmol Fe/m^3'
(PID.TID 0000.0001) > PTRACERS_units(12)='mmol C/m^3'
(PID.TID 0000.0001) > PTRACERS_units(13)='mmol N/m^3'
(PID.TID 0000.0001) > PTRACERS_units(14)='mmol P/m^3'
(PID.TID 0000.0001) > PTRACERS_units(15)='mmol Si/m^3'
(PID.TID 0000.0001) > PTRACERS_units(16)='mmol Fe/m^3'
(PID.TID 0000.0001) > PTRACERS_units(17)='mmol C/m^3'
(PID.TID 0000.0001) > PTRACERS_units(18:97)=80*'mmol C/m^3'
(PID.TID 0000.0001) >#
(PID.TID 0000.0001) > PTRACERS_ref(1:15,   1)= 15*2e3,
(PID.TID 0000.0001) > PTRACERS_initialFile(2)='../input/input_ocmip/nh4_run1_ocmip.bin',
(PID.TID 0000.0001) > PTRACERS_initialFile(3)='../input/input_ocmip/no2_run1_ocmip.bin',
(PID.TID 0000.0001) > PTRACERS_initialFile(4)='../input/input_ocmip/no3_uM.bin',
(PID.TID 0000.0001) > PTRACERS_initialFile(5)='../input/input_ocmip/po4_uM.bin',
(PID.TID 0000.0001) > PTRACERS_initialFile(6)='../input/input_ocmip/sio2_uM.bin',
(PID.TID 0000.0001) > PTRACERS_initialFile(7)='../input/input_ocmip/fet_run136.bin',
(PID.TID 0000.0001) > PTRACERS_ref(1:15,   8)= 15*0e0,
(PID.TID 0000.0001) > PTRACERS_initialFile(9)='../input/input_ocmip/don_init.bin',
(PID.TID 0000.0001) > PTRACERS_initialFile(10)='../input/input_ocmip/dop_run136.bin',
(PID.TID 0000.0001) > PTRACERS_initialFile(11)='../input/input_ocmip/dof_run136.bin',
(PID.TID 0000.0001) > PTRACERS_ref(1:15,   12)= 15*0e0,
(PID.TID 0000.0001) > PTRACERS_initialFile(13)='../input/input_ocmip/pon_init.bin',
(PID.TID 0000.0001) > PTRACERS_initialFile(14)='../input/input_ocmip/pop_run136.bin',
(PID.TID 0000.0001) > PTRACERS_initialFile(15)='../input/input_ocmip/pos_run136.bin',
(PID.TID 0000.0001) > PTRACERS_initialFile(16)='../input/input_ocmip/pof_run136.bin',
(PID.TID 0000.0001) > PTRACERS_ref(1:15,   17)= 15*0e0,
(PID.TID 0000.0001) > PTRACERS_initialFile(18:95)=78*'../input/input_ocmip/seawifs_chl_p78.bin',
(PID.TID 0000.0001) > PTRACERS_initialFile(96)='../input/input_ocmip/seawifs_zoo_p2.bin',
(PID.TID 0000.0001) > PTRACERS_initialFile(97)='../input/input_ocmip/seawifs_zoo_p2.bin',
(PID.TID 0000.0001) > /
(PID.TID 0000.0001) 
(PID.TID 0000.0001)  PTRACERS_READPARMS: finished reading data.ptracers
(PID.TID 0000.0001)  GCHEM_READPARMS: opening data.gchem
(PID.TID 0000.0001)  OPEN_COPY_DATA_FILE: opening file data.gchem
(PID.TID 0000.0001) // =======================================================
(PID.TID 0000.0001) // Parameter file "data.gchem"
(PID.TID 0000.0001) // =======================================================
(PID.TID 0000.0001) > &GCHEM_PARM01
(PID.TID 0000.0001) > useDARWIN=.TRUE.,
(PID.TID 0000.0001) > nsubtime=4,
(PID.TID 0000.0001) > /
(PID.TID 0000.0001) 
(PID.TID 0000.0001)  GCHEM_READPARMS: finished reading data.gchem
(PID.TID 0000.0001)  DARWIN_READPARMS: opening data.darwin
(PID.TID 0000.0001)  OPEN_COPY_DATA_FILE: opening file data.darwin
(PID.TID 0000.0001) // =======================================================
(PID.TID 0000.0001) // Parameter file "data.darwin"
(PID.TID 0000.0001) // =======================================================
(PID.TID 0000.0001) > &DARWIN_FORCING_PARAMS
(PID.TID 0000.0001) > iceFile='../input/input_ocmip/fice.bin',
(PID.TID 0000.0001) > ironFile='../input/input_ocmip/mah_flux_smooth.bin',
(PID.TID 0000.0001) > PARFile='../input/input_ocmip/par_ocmip.bin_mth-2d.bin',
(PID.TID 0000.0001) > icePeriod= -12.,
(PID.TID 0000.0001) > ironPeriod= -12.,
(PID.TID 0000.0001) > PARPeriod= -12.,
(PID.TID 0000.0001) > darwin_inscal_iron= 1000.,
(PID.TID 0000.0001) > darwin_inscal_PAR= 11.574074074074,
(PID.TID 0000.0001) > /
(PID.TID 0000.0001) > &DARWIN_PARAMS
(PID.TID 0000.0001) > darwin_seed=801,
(PID.TID 0000.0001) > darwin_read_phos=T,
(PID.TID 0000.0001) > PARmin=1.0,
(PID.TID 0000.0001) > /
(PID.TID 0000.0001) > &DARWIN_TRAIT_PARAMS
(PID.TID 0000.0001) > /
(PID.TID 0000.0001) > &DARWIN_ALLOMETRIC_PARAMS
(PID.TID 0000.0001) > /
(PID.TID 0000.0001) > &DARWIN_TRAITS
(PID.TID 0000.0001) > /
(PID.TID 0000.0001) 
(PID.TID 0000.0001) QQ random port_rand              801   0.7787879999999999
(PID.TID 0000.0001)  ===================================
(PID.TID 0000.0001)  DIAGNOSTICS_READPARMS: opening data.diagnostics
(PID.TID 0000.0001)  OPEN_COPY_DATA_FILE: opening file data.diagnostics
(PID.TID 0000.0001) // =======================================================
(PID.TID 0000.0001) // Parameter file "data.diagnostics"
(PID.TID 0000.0001) // =======================================================
(PID.TID 0000.0001) > &diagnostics_list
(PID.TID 0000.0001) > filename(1)= 'darwin',
(PID.TID 0000.0001) > frequency(1)= 43200.,
(PID.TID 0000.0001) > fields(1,1)= 'TRAC01  ',
(PID.TID 0000.0001) > fields(2,1)= 'TRAC02  ',
(PID.TID 0000.0001) > fields(3,1)= 'TRAC03  ',
(PID.TID 0000.0001) > fields(4,1)= 'TRAC04  ',
(PID.TID 0000.0001) > fields(5,1)= 'TRAC05  ',
(PID.TID 0000.0001) > fields(6,1)= 'TRAC06  ',
(PID.TID 0000.0001) > fields(7,1)= 'TRAC07  ',
(PID.TID 0000.0001) > fields(8,1)= 'TRAC08  ',
(PID.TID 0000.0001) > fields(9,1)= 'TRAC09  ',
(PID.TID 0000.0001) > fields(10,1)= 'TRAC10  ',
(PID.TID 0000.0001) > fields(11,1)= 'TRAC11  ',
(PID.TID 0000.0001) > fields(12,1)= 'TRAC12  ',
(PID.TID 0000.0001) > fields(13,1)= 'TRAC13  ',
(PID.TID 0000.0001) > fields(14,1)= 'TRAC14  ',
(PID.TID 0000.0001) > fields(15,1)= 'TRAC15  ',
(PID.TID 0000.0001) > fields(16,1)= 'TRAC16  ',
(PID.TID 0000.0001) > fields(17,1)= 'TRAC17  ',
(PID.TID 0000.0001) > fields(18,1)= 'TRAC18  ',
(PID.TID 0000.0001) > fields(19,1)= 'TRAC19  ',
(PID.TID 0000.0001) > fields(20,1)= 'TRAC20  ',
(PID.TID 0000.0001) > fields(21,1)= 'TRAC21  ',
(PID.TID 0000.0001) > fields(22,1)= 'TRAC22  ',
(PID.TID 0000.0001) > fields(23,1)= 'TRAC23  ',
(PID.TID 0000.0001) > fields(24,1)= 'TRAC24  ',
(PID.TID 0000.0001) > fields(25,1)= 'TRAC25  ',
(PID.TID 0000.0001) > fields(26,1)= 'TRAC26  ',
(PID.TID 0000.0001) > fields(27,1)= 'TRAC27  ',
(PID.TID 0000.0001) > fields(28,1)= 'TRAC28  ',
(PID.TID 0000.0001) > fields(29,1)= 'TRAC29  ',
(PID.TID 0000.0001) > fields(30,1)= 'TRAC30  ',
(PID.TID 0000.0001) > fields(31,1)= 'TRAC31  ',
(PID.TID 0000.0001) > fields(32,1)= 'TRAC32  ',
(PID.TID 0000.0001) > fields(33,1)= 'TRAC33  ',
(PID.TID 0000.0001) > fields(34,1)= 'TRAC34  ',
(PID.TID 0000.0001) > fields(35,1)= 'TRAC35  ',
(PID.TID 0000.0001) > fields(36,1)= 'TRAC36  ',
(PID.TID 0000.0001) > fields(37,1)= 'TRAC37  ',
(PID.TID 0000.0001) > fields(38,1)= 'TRAC38  ',
(PID.TID 0000.0001) > fields(39,1)= 'TRAC39  ',
(PID.TID 0000.0001) > fields(40,1)= 'TRAC40  ',
(PID.TID 0000.0001) > fields(41,1)= 'TRAC41  ',
(PID.TID 0000.0001) > fields(42,1)= 'TRAC42  ',
(PID.TID 0000.0001) > fields(43,1)= 'TRAC43  ',
(PID.TID 0000.0001) > fields(44,1)= 'TRAC44  ',
(PID.TID 0000.0001) > fields(45,1)= 'TRAC45  ',
(PID.TID 0000.0001) > fields(46,1)= 'TRAC46  ',
(PID.TID 0000.0001) > fields(47,1)= 'TRAC47  ',
(PID.TID 0000.0001) > fields(48,1)= 'TRAC48  ',
(PID.TID 0000.0001) > fields(49,1)= 'TRAC49  ',
(PID.TID 0000.0001) > fields(50,1)= 'TRAC50  ',
(PID.TID 0000.0001) > fields(51,1)= 'TRAC51  ',
(PID.TID 0000.0001) > fields(52,1)= 'TRAC52  ',
(PID.TID 0000.0001) > fields(53,1)= 'TRAC53  ',
(PID.TID 0000.0001) > fields(54,1)= 'TRAC54  ',
(PID.TID 0000.0001) > fields(55,1)= 'TRAC55  ',
(PID.TID 0000.0001) > fields(56,1)= 'TRAC56  ',
(PID.TID 0000.0001) > fields(57,1)= 'TRAC57  ',
(PID.TID 0000.0001) > fields(58,1)= 'TRAC58  ',
(PID.TID 0000.0001) > fields(59,1)= 'TRAC59  ',
(PID.TID 0000.0001) > fields(60,1)= 'TRAC60  ',
(PID.TID 0000.0001) > fields(61,1)= 'TRAC61  ',
(PID.TID 0000.0001) > fields(62,1)= 'TRAC62  ',
(PID.TID 0000.0001) > fields(63,1)= 'TRAC63  ',
(PID.TID 0000.0001) > fields(64,1)= 'TRAC64  ',
(PID.TID 0000.0001) > fields(65,1)= 'TRAC65  ',
(PID.TID 0000.0001) > fields(66,1)= 'TRAC66  ',
(PID.TID 0000.0001) > fields(67,1)= 'TRAC67  ',
(PID.TID 0000.0001) > fields(68,1)= 'TRAC68  ',
(PID.TID 0000.0001) > fields(69,1)= 'TRAC69  ',
(PID.TID 0000.0001) > fields(70,1)= 'TRAC70  ',
(PID.TID 0000.0001) > fields(71,1)= 'TRAC71  ',
(PID.TID 0000.0001) > fields(72,1)= 'TRAC72  ',
(PID.TID 0000.0001) > fields(73,1)= 'TRAC73  ',
(PID.TID 0000.0001) > fields(74,1)= 'TRAC74  ',
(PID.TID 0000.0001) > fields(75,1)= 'TRAC75  ',
(PID.TID 0000.0001) > fields(76,1)= 'TRAC76  ',
(PID.TID 0000.0001) > fields(77,1)= 'TRAC77  ',
(PID.TID 0000.0001) > fields(78,1)= 'TRAC78  ',
(PID.TID 0000.0001) > fields(79,1)= 'TRAC79  ',
(PID.TID 0000.0001) > fields(80,1)= 'TRAC80  ',
(PID.TID 0000.0001) > fields(81,1)= 'TRAC81  ',
(PID.TID 0000.0001) > fields(82,1)= 'TRAC82  ',
(PID.TID 0000.0001) > fields(83,1)= 'TRAC83  ',
(PID.TID 0000.0001) > fields(84,1)= 'TRAC84  ',
(PID.TID 0000.0001) > fields(85,1)= 'TRAC85  ',
(PID.TID 0000.0001) > fields(86,1)= 'TRAC86  ',
(PID.TID 0000.0001) > fields(87,1)= 'TRAC87  ',
(PID.TID 0000.0001) > fields(88,1)= 'TRAC88  ',
(PID.TID 0000.0001) > fields(89,1)= 'TRAC89  ',
(PID.TID 0000.0001) > fields(90,1)= 'TRAC90  ',
(PID.TID 0000.0001) > fields(91,1)= 'TRAC91  ',
(PID.TID 0000.0001) > fields(92,1)= 'TRAC92  ',
(PID.TID 0000.0001) > fields(93,1)= 'TRAC93  ',
(PID.TID 0000.0001) > fields(94,1)= 'TRAC94  ',
(PID.TID 0000.0001) > fields(95,1)= 'TRAC95  ',
(PID.TID 0000.0001) > fields(96,1)= 'TRAC96  ',
(PID.TID 0000.0001) > fields(97,1)= 'TRAC97  ',
(PID.TID 0000.0001) > fields(98,1)= 'PAR01   ',
(PID.TID 0000.0001) > fields(99,1)= 'DIC_c01 ',
(PID.TID 0000.0001) > fields(100,1)= 'DIC_c02 ',
(PID.TID 0000.0001) > fields(101,1)= 'c01_DOC ',
(PID.TID 0000.0001) > fields(102,1)= 'c02_DOC ',
(PID.TID 0000.0001) > fields(103,1)= 'c01_POC ',
(PID.TID 0000.0001) > fields(104,1)= 'c02_POC ',
(PID.TID 0000.0001) > fields(105,1)= 'PARF    ',
(PID.TID 0000.0001) > fields(106,1)= 'atten   ',
(PID.TID 0000.0001) > fields(107,1)= 'surfPAR ',
(PID.TID 0000.0001) > fields(108,1)= 'exfPAR  ',
(PID.TID 0000.0001) > fields(109,1)= 'limn01  ',
(PID.TID 0000.0001) > fields(110,1)= 'limp01  ',
(PID.TID 0000.0001) > fields(111,1)= 'limsi01 ',
(PID.TID 0000.0001) > fields(112,1)= 'limfe01 ',
(PID.TID 0000.0001) > fields(113,1)= 'limI01  ',
(PID.TID 0000.0001) > fields(114,1)= 'limT01  ',
(PID.TID 0000.0001) > fields(115,1)= 'c01_c   ',
(PID.TID 0000.0001) > fields(116,1)= 'c02_c   ',
(PID.TID 0000.0001) > fields(117,1)= 'c_c03   ',
(PID.TID 0000.0001) > fields(118,1)= 'c_c04   ',
(PID.TID 0000.0001) > fields(119,1)= 'c_DOC   ',
(PID.TID 0000.0001) > fields(120,1)= 'c_POC   ',
(PID.TID 0000.0001) > fields(121,1)= 'c_PIC   ',
(PID.TID 0000.0001) > fields(122,1)= 'n_DON   ',
(PID.TID 0000.0001) > fields(123,1)= 'n_PON   ',
(PID.TID 0000.0001) > fields(124,1)= 'p_DOP   ',
(PID.TID 0000.0001) > fields(125,1)= 'p_POP   ',
(PID.TID 0000.0001) > /
(PID.TID 0000.0001) > &diag_statis_parms
(PID.TID 0000.0001) > /
(PID.TID 0000.0001) 
(PID.TID 0000.0001) S/R DIAGNOSTICS_READPARMS, read namelist "diagnostics_list": start
(PID.TID 0000.0001) S/R DIAGNOSTICS_READPARMS, read namelist "diagnostics_list": OK
(PID.TID 0000.0001) S/R DIAGNOSTICS_READPARMS, read namelist "DIAG_STATIS_PARMS": start
(PID.TID 0000.0001) S/R DIAGNOSTICS_READPARMS, read namelist "DIAG_STATIS_PARMS": OK
(PID.TID 0000.0001)  DIAGNOSTICS_READPARMS: global parameter summary:
(PID.TID 0000.0001)  dumpAtLast = /* always write time-ave diags at the end */
(PID.TID 0000.0001)                   F
(PID.TID 0000.0001)     ;
(PID.TID 0000.0001)  diag_mnc =   /* write NetCDF output files */
(PID.TID 0000.0001)                   T
(PID.TID 0000.0001)     ;
(PID.TID 0000.0001)  useMissingValue = /* put MissingValue where mask = 0 */
(PID.TID 0000.0001)                   F
(PID.TID 0000.0001)     ;
(PID.TID 0000.0001)  diagCG_maxIters = /* max number of iters in diag_cg2d */
(PID.TID 0000.0001)                    1000
(PID.TID 0000.0001)     ;
(PID.TID 0000.0001)  diagCG_resTarget = /* residual target for diag_cg2d */
(PID.TID 0000.0001)                 1.000000000000000E-13
(PID.TID 0000.0001)     ;
(PID.TID 0000.0001) -----------------------------------------------------
(PID.TID 0000.0001)  DIAGNOSTICS_READPARMS: active diagnostics summary:
(PID.TID 0000.0001) -----------------------------------------------------
(PID.TID 0000.0001) Creating Output Stream: darwin
(PID.TID 0000.0001) Output Frequency:      43200.000000 ; Phase:           0.000000
(PID.TID 0000.0001)  Averaging Freq.:      43200.000000 , Phase:           0.000000 , Cycle:   1
(PID.TID 0000.0001)  missing value:  1.234567000000E+05 ; for integers:   123456789
(PID.TID 0000.0001)  Levels:    will be set later
(PID.TID 0000.0001)  Fields:    TRAC01   TRAC02   TRAC03   TRAC04   TRAC05   TRAC06   TRAC07   TRAC08   TRAC09   TRAC10
(PID.TID 0000.0001)  Fields:    TRAC11   TRAC12   TRAC13   TRAC14   TRAC15   TRAC16   TRAC17   TRAC18   TRAC19   TRAC20
(PID.TID 0000.0001)  Fields:    TRAC21   TRAC22   TRAC23   TRAC24   TRAC25   TRAC26   TRAC27   TRAC28   TRAC29   TRAC30
(PID.TID 0000.0001)  Fields:    TRAC31   TRAC32   TRAC33   TRAC34   TRAC35   TRAC36   TRAC37   TRAC38   TRAC39   TRAC40
(PID.TID 0000.0001)  Fields:    TRAC41   TRAC42   TRAC43   TRAC44   TRAC45   TRAC46   TRAC47   TRAC48   TRAC49   TRAC50
(PID.TID 0000.0001)  Fields:    TRAC51   TRAC52   TRAC53   TRAC54   TRAC55   TRAC56   TRAC57   TRAC58   TRAC59   TRAC60
(PID.TID 0000.0001)  Fields:    TRAC61   TRAC62   TRAC63   TRAC64   TRAC65   TRAC66   TRAC67   TRAC68   TRAC69   TRAC70
(PID.TID 0000.0001)  Fields:    TRAC71   TRAC72   TRAC73   TRAC74   TRAC75   TRAC76   TRAC77   TRAC78   TRAC79   TRAC80
(PID.TID 0000.0001)  Fields:    TRAC81   TRAC82   TRAC83   TRAC84   TRAC85   TRAC86   TRAC87   TRAC88   TRAC89   TRAC90
(PID.TID 0000.0001)  Fields:    TRAC91   TRAC92   TRAC93   TRAC94   TRAC95   TRAC96   TRAC97   PAR01    DIC_c01  DIC_c02
(PID.TID 0000.0001)  Fields:    c01_DOC  c02_DOC  c01_POC  c02_POC  PARF     atten    surfPAR  exfPAR   limn01   limp01
(PID.TID 0000.0001)  Fields:    limsi01  limfe01  limI01   limT01   c01_c    c02_c    c_c03    c_c04    c_DOC    c_POC
(PID.TID 0000.0001)  Fields:    c_PIC    n_DON    n_PON    p_DOP    p_POP
(PID.TID 0000.0001) -----------------------------------------------------
(PID.TID 0000.0001)  DIAGNOSTICS_READPARMS: statistics diags. summary:
(PID.TID 0000.0001) -----------------------------------------------------
(PID.TID 0000.0001) 
(PID.TID 0000.0001) SET_PARMS: done
(PID.TID 0000.0001) Enter INI_VERTICAL_GRID: setInterFDr=    T ; setCenterDr=    F
(PID.TID 0000.0001) %MON XC_max                       =   3.5859375000000000E+02
(PID.TID 0000.0001) %MON XC_min                       =   1.4062500000000000E+00
(PID.TID 0000.0001) %MON XC_mean                      =   1.8000000000000000E+02
(PID.TID 0000.0001) %MON XC_sd                        =   1.0391987692598804E+02
(PID.TID 0000.0001) %MON XG_max                       =   3.5718750000000000E+02
(PID.TID 0000.0001) %MON XG_min                       =   0.0000000000000000E+00
(PID.TID 0000.0001) %MON XG_mean                      =   1.7859375000000000E+02
(PID.TID 0000.0001) %MON XG_sd                        =   1.0391987692598804E+02
(PID.TID 0000.0001) %MON DXC_max                      =   3.1259246843154915E+05
(PID.TID 0000.0001) %MON DXC_min                      =   7.6737143816222988E+03
(PID.TID 0000.0001) %MON DXC_mean                     =   1.9908248704233844E+05
(PID.TID 0000.0001) %MON DXC_sd                       =   9.6190602240066684E+04
(PID.TID 0000.0001) %MON DXF_max                      =   3.1259246843154915E+05
(PID.TID 0000.0001) %MON DXF_min                      =   7.6737143816222988E+03
(PID.TID 0000.0001) %MON DXF_mean                     =   1.9908248704233844E+05
(PID.TID 0000.0001) %MON DXF_sd                       =   9.6190602240066684E+04
(PID.TID 0000.0001) %MON DXG_max                      =   3.1268664380260912E+05
(PID.TID 0000.0001) %MON DXG_min                      =   0.0000000000000000E+00
(PID.TID 0000.0001) %MON DXG_mean                     =   1.9902252711932667E+05
(PID.TID 0000.0001) %MON DXG_sd                       =   9.6314600686012433E+04
(PID.TID 0000.0001) %MON DXV_max                      =   3.1268664380260912E+05
(PID.TID 0000.0001) %MON DXV_min                      =   0.0000000000000000E+00
(PID.TID 0000.0001) %MON DXV_mean                     =   1.9902252711932667E+05
(PID.TID 0000.0001) %MON DXV_sd                       =   9.6314600686012433E+04
(PID.TID 0000.0001) %MON YC_max                       =   8.8593750000000000E+01
(PID.TID 0000.0001) %MON YC_min                       =  -8.8593750000000000E+01
(PID.TID 0000.0001) %MON YC_mean                      =   0.0000000000000000E+00
(PID.TID 0000.0001) %MON YC_sd                        =   5.1955180880375153E+01
(PID.TID 0000.0001) %MON YG_max                       =   8.7187500000000000E+01
(PID.TID 0000.0001) %MON YG_min                       =  -9.0000000000000000E+01
(PID.TID 0000.0001) %MON YG_mean                      =  -1.4062500000000000E+00
(PID.TID 0000.0001) %MON YG_sd                        =   5.1955180880375153E+01
(PID.TID 0000.0001) %MON DYC_max                      =   3.1268664380260912E+05
(PID.TID 0000.0001) %MON DYC_min                      =   3.1268664380260912E+05
(PID.TID 0000.0001) %MON DYC_mean                     =   3.1268664380262379E+05
(PID.TID 0000.0001) %MON DYC_sd                       =   1.4668330550193787E-08
(PID.TID 0000.0001) %MON DYF_max                      =   3.1268664380260912E+05
(PID.TID 0000.0001) %MON DYF_min                      =   3.1268664380260912E+05
(PID.TID 0000.0001) %MON DYF_mean                     =   3.1268664380262379E+05
(PID.TID 0000.0001) %MON DYF_sd                       =   1.4668330550193787E-08
(PID.TID 0000.0001) %MON DYG_max                      =   3.1268664380260912E+05
(PID.TID 0000.0001) %MON DYG_min                      =   3.1268664380260912E+05
(PID.TID 0000.0001) %MON DYG_mean                     =   3.1268664380262379E+05
(PID.TID 0000.0001) %MON DYG_sd                       =   1.4668330550193787E-08
(PID.TID 0000.0001) %MON DYU_max                      =   3.1268664380260912E+05
(PID.TID 0000.0001) %MON DYU_min                      =   3.1268664380260912E+05
(PID.TID 0000.0001) %MON DYU_mean                     =   3.1268664380262379E+05
(PID.TID 0000.0001) %MON DYU_sd                       =   1.4668330550193787E-08
(PID.TID 0000.0001) %MON RA_max                       =   9.7733676797555420E+10
(PID.TID 0000.0001) %MON RA_min                       =   2.3992270990190182E+09
(PID.TID 0000.0001) %MON RA_mean                      =   6.2244185031957382E+10
(PID.TID 0000.0001) %MON RA_sd                        =   3.0074496923945278E+10
(PID.TID 0000.0001) %MON RAW_max                      =   9.7733676797555420E+10
(PID.TID 0000.0001) %MON RAW_min                      =   2.3992270990190182E+09
(PID.TID 0000.0001) %MON RAW_mean                     =   6.2244185031957382E+10
(PID.TID 0000.0001) %MON RAW_sd                       =   3.0074496923945278E+10
(PID.TID 0000.0001) %MON RAS_max                      =   9.7763121221868164E+10
(PID.TID 0000.0001) %MON RAS_min                      =   0.0000000000000000E+00
(PID.TID 0000.0001) %MON RAS_mean                     =   6.2225438247156563E+10
(PID.TID 0000.0001) %MON RAS_sd                       =   3.0113265689232788E+10
(PID.TID 0000.0001) %MON RAZ_max                      =   9.7763121221868164E+10
(PID.TID 0000.0001) %MON RAZ_min                      =   0.0000000000000000E+00
(PID.TID 0000.0001) %MON RAZ_mean                     =   6.2225438247156563E+10
(PID.TID 0000.0001) %MON RAZ_sd                       =   3.0113265689232788E+10
(PID.TID 0000.0001) %MON AngleCS_max                  =   1.0000000000000000E+00
(PID.TID 0000.0001) %MON AngleCS_min                  =   1.0000000000000000E+00
(PID.TID 0000.0001) %MON AngleCS_mean                 =   1.0000000000000000E+00
(PID.TID 0000.0001) %MON AngleCS_sd                   =   0.0000000000000000E+00
(PID.TID 0000.0001) %MON AngleSN_max                  =   0.0000000000000000E+00
(PID.TID 0000.0001) %MON AngleSN_min                  =   0.0000000000000000E+00
(PID.TID 0000.0001) %MON AngleSN_mean                 =   0.0000000000000000E+00
(PID.TID 0000.0001) %MON AngleSN_sd                   =   0.0000000000000000E+00
(PID.TID 0000.0001)  MDS_READ_FIELD: opening global file: ../input/input_ocmip/depth_g77.bin
(PID.TID 0000.0001) // =======================================================
(PID.TID 0000.0001) // Field Model R_low (ini_masks_etc)
(PID.TID 0000.0001) // CMIN =         -5.200000000000000E+03
(PID.TID 0000.0001) // CMAX =         -5.000000000000000E+01
(PID.TID 0000.0001) // CINT =          1.907407407407407E+02
(PID.TID 0000.0001) // SYMBOLS (CMIN->CMAX): -abcdefghijklmnopqrstuvwxyz+
(PID.TID 0000.0001) //                  0.0: .
(PID.TID 0000.0001) // RANGE I (Lo:Hi:Step):(    -3:   132:     1)
(PID.TID 0000.0001) // RANGE J (Lo:Hi:Step):(    68:    -3:    -1)
(PID.TID 0000.0001) // RANGE K (Lo:Hi:Step):(   1:   1:   1)
(PID.TID 0000.0001) // =======================================================
(PID.TID 0000.0001) K =   1
(PID.TID 0000.0001) //                I=6       I=16      I=26      I=36      I=46      I=56      I=66      I=68      I=78      I=88      I=98      I=108     I=118     I=128
(PID.TID 0000.0001) // |--J--|321012345|789012345|789012345|789012345|789012345|789012345|789012345|781234567|901234567|901234567|901234567|901234567|901234567|901234567|9012
(PID.TID 0000.0001) //     68 ................................................................................................................................................
(PID.TID 0000.0001) //     67 ................................................................................................................................................
(PID.TID 0000.0001) //     66 ................................................................................................................................................
(PID.TID 0000.0001) //     65 ................................................................................................................................................
(PID.TID 0000.0001) //     64 ................................................................................................................................................
(PID.TID 0000.0001) //     63 ................................................................................................................................................
(PID.TID 0000.0001) //     62 ................................................................................................................................................
(PID.TID 0000.0001) //     61 +zvoovxyyy...+zzzzz+++++...............................................................................................................++zvoovxy
(PID.TID 0000.0001) //     60 +yvmmorw.....+++++zzzzz+.........................................................................................+....................zz+yvmmorw
(PID.TID 0000.0001) //     59 ojjjmmooty++zzzzzzzzzz+.........................................................................................+xwwwyz..............+ztojjjmmoo
(PID.TID 0000.0001) //     58 troommmorxzz+++zzzzz++.............................................................................................wttyz............+yvttroommmo
(PID.TID 0000.0001) //     57 vrmmmmmrv............................................................................................................xxz............xwvvvrmmmmmr
(PID.TID 0000.0001) //     56 vrjjrvyz..............................................................................................................zy........yyzxx..zvrjjrvyz
(PID.TID 0000.0001) //     55 ywrrvy..............................................................++......++.......................................+yvv.....vrrtxyyzyyywrrvy..
(PID.TID 0000.0001) //     54 xzz++............................................................vtt++++.vtt++++......................................yommv..vmmrvtoortwxzz++...
(PID.TID 0000.0001) //     53 y...++.................................................++++...wvtjggmrz+tjggmrz+++....xojmt...........................+tmjjmmmmrtoootwyxy...++..
(PID.TID 0000.0001) //     52 ....++................................................+zyyy...rrojjrmjjtojjrmjjt+.yvrjjjjjjr............................wtjjjjmrommmtvtt....++..
(PID.TID 0000.0001) //     51 .......................................................zvvx..ggjjmotvoomjmotvoomjdddddgggjjjrz..........................+yrjjjjjmmjjmmry........
(PID.TID 0000.0001) //     50 y+.....................................................+vvxyd--ggdd-----gdd-------ddddddgggjmox..........................+yrogggjmmggggty+......
(PID.TID 0000.0001) //     49 gj+....................................................+vvmd----g-------g--------------ddddgjomx..........................+wrgggjmojggddgj+.....
(PID.TID 0000.0001) //     48 vxx.....................................................vd------g-------g--------------ddgggjmmv.....................+xrrxwgdggjjoomjggjvxx.....
(PID.TID 0000.0001) //     47 v......................................................m------d-gd------gd-------------ddddggjjt...................ywgd--dggdddgrrojgddgv.......
(PID.TID 0000.0001) //     46 w.....................................................xd-----gd-jdgd----jdgd-----------dd---dddm..................rgddg-----dggmttvogdjjw.......
(PID.TID 0000.0001) //     45 m.....................................................m-----gd--gjjjjj--gjjjjj-------------ddddgt................tgddddg-ggggjoooojddgomm.......
(PID.TID 0000.0001) //     44 .................................................+.wttg----gj----jgggg---jgggg---dd-------ddddggjw..............zj--ggdd--dgjomjjoj-djmm........
(PID.TID 0000.0001) //     43 ................................................+zxmjrg----------dddggdd-dddggdd--d----ddddggddggmx............+wg--dd----djmmgddjd-djow........
(PID.TID 0000.0001) //     42 ...............................................+zyomjjrmd-----------djjj----djjjjdgd----dddddddgggj............wwd-------ddjmgd---d-gmx.........
(PID.TID 0000.0001) //     41 .........................tt.....................mgjjggrgddjddd----d---gg--d---ggtjjggd----ddddggggjm++.......vwwwv-------dgmjd------go..........
(PID.TID 0000.0001) //     40 .........................roo.................yytdd--gdmogggjjgd--jomd-gj-jomd-gjgdgovd-------ddggggjmm.......xxx.xvj-----dgmgd--ddddgt..........
(PID.TID 0000.0001) //     39 ........................xjjjr.....vrr.......vovtd---ddgogjgddggggmjjjmmmgmjjjmmmg--gmd--------dgggjjmmt......oortw.tttg-ddgmgd--ddgjjr..........
(PID.TID 0000.0001) //     38 .......................rmjggjt...rmmo+.....xrov.m--dddgogddddgggddgddddjddgddddjg----------dd-ddgggjmjmmov.....ytmmggttdddjjjdd---dtjr..........
(PID.TID 0000.0001) //     37 ....................zvvtjggggt..+jjjrx+....vmmy.t--ddgmmg--ddjmmg-d-d--dg-d-d--ddd-------dddddddggggjjmmjjjo...toovttwxjdddjjgd----ddo..........
(PID.TID 0000.0001) //     36 ......................tjmgdddrw.+jjjrxz....vty...--gmommmgdddmgor------gr------ggmgg--d---dddddddgggjmmjjggjm+.ww......rjdddgjgd----gm..........
(PID.TID 0000.0001) //     35 ......................dgjmgggmrv+jgjoxz....ww....--mjjorrommjgdjmj---d--mj---d--dgmgdddd-dddddddggggggjjjjjjjtx.........zyggddgjjgggmdjx........
(PID.TID 0000.0001) //     34 rrrrrtz..............rdddjmjgmrmgggjjw........zyxojjggmgggjmjjdgdjd--d--djd--d---djodddddddddddddgggggjjjjjmtrmr..........ymgggjmjggjddgrrrrrtz.
(PID.TID 0000.0001) //     33 dddddgr.............tddggggmjjogdddjjj.........zxxojgjmgggjoojdddmg--dd-dmg--dd--ddmjdgdddddgddddgggggjjjmmtrmmy...........+jgggjmjjdddddddddgr.
(PID.TID 0000.0001) //     32 gdddggo............rgddgddgjjjjddddgddm.........xx..+ttttrrrojggggo--dd-ggo--dd----dgddddddddddddddgggjjjjjtror..............oogdddgggjjgdddggo.
(PID.TID 0000.0001) //     31 jgddgdgy..........vgddgwrjgjmrg--ddgdddr........xxz.....y.xvtomjjdd---ddjdd---dd-jdddddddddddddddddggjjjjgggjjj................tg----dgmjgddgdgy
(PID.TID 0000.0001) //     30 jgdgd-dm..........vggjjovmgjmwd---dgddddmy...+xxxxy++....oo.vtjjgddg--ddgddg--dddjgddddddgjdddddddggjjjgggggggg................zd---dgjmjgdgd-dm
(PID.TID 0000.0001) //     29 jggd--dgy.........wjmmmjmyomjm---ddgdddddgjmooxxxx++++.+..vtvxrrgddjjjjggddjjjjggjmg-dgddgrgddgggggjmmjggggggddr...............yd---dgjmjggd--dg
(PID.TID 0000.0001) //     28 jjdd---gy.........wtr.gggymmjg--ddgj-djdggggggmxx+.....+ommromrvorrrtmmgorrrtmmgdgm--dgddgggggggggjjmjgggggggddd..............+gg---dgmmjjdd---g
(PID.TID 0000.0001) //     27 jgdd---g..........ww..gggymmjgdd-djj-dd---dgjjw+........vtmmmjjxmmotvrrgmmotvrrgddd-ggmtvroggggggjjmjjggjjggddddo.............ygd---dgjmjgdd---g
(PID.TID 0000.0001) //     26 jgdd---o..........rx..ddoromjgdd--gj-d-----jtw+..........ytrrotwrmrzvrjgrmrzvrjgdddgggojmromjgggjjjmjggggggddddjjg............yjd---dgjmjgdd---o
(PID.TID 0000.0001) //     25 jdd--dmo.........roz.rdomgjmmgddddgjd---dggox.............ztxxzyrmmmtv--rmmmtv----dgggggggmmjggggjjjjgggggggggmjddj...........rjgd--ddgmjdd--dmo
(PID.TID 0000.0001) //     24 gd---gogt.......zmjx.jdgdgggmjggddgjd--ddgmr..............zrrtmwoggjto--oggjto----ddddgggggjmjjjjjmjjgggjjjjjmmgdjj..........vjgd----djmgd---gog
(PID.TID 0000.0001) //     23 jgdddojdo.......wjgowj---dgjjmjggggjdddmdddr..............yjrtmrmjgjtmd-mjgjtmd------ddjmjgggggjjjmmmmmmmjjjjjjjggo........+omgddddddgjmjgdddojd
(PID.TID 0000.0001) //     22 jgddmgddj+.....yrddoojddgjggggmjgggooommgddd+.............yjrtororjmt-d-orjmt-d-------dddggdgggggjjmmmjjjjjjjgggggw........rjjmoojdddgjmjgddmgdd
(PID.TID 0000.0001) //     21 ggjjjdddgv.....mrddrogdjjgdddgjmjjmrgjmmgddgt....++.......rgrvovtrmom---trmom------------ddddgggggjmmjjjggjjjggggg+.......wjgggmmjdgggjjggjjjddd
(PID.TID 0000.0001) //     20 ggjgd---dgy.xjgjjddjjjjjgddddggjjjjgggdddddgjttjjjjt......gggrvtt.xrj--dt.xrj--d----------ddggjjggjjjjjjjjjjgggggj.......zjdddddgggggjjjggjgd---
(PID.TID 0000.0001) //     19 jjgd----gggjgjggddgjjjjgd-dddggjjjgggggddddddd------gv...jdddjtww..xjd-dw..xjd-dj--d-------dddddgggjjjgggjjjgggggj......zj-----ddggggjjjjjgd----
(PID.TID 0000.0001) //     18 jjgggdddjg--gjggdgjjjjjgd--dggjjjjjjjjggggddddd------dj..jddddjvy..tjjggy..tjjggdg-----------ddddggjjjggggjjjjgggv......r-------dddgjjjjjjgggddd
(PID.TID 0000.0001) //     17 gggjgdgdddddd--djjjjjjjgddddggjjjjjjjjjjggggdddddddddddvyjddddgv..wwwwrj..wwwwrjd-d-----------ddggjjjjjggggggjjjjz...++t--------ddddgjjjgggjgdgd
(PID.TID 0000.0001) //     16 jjgggdjgdddd--djjjjjjjjgddgjjjjjjjjjjjjjjjgggggdddddggdjrjddddj..vtrjgd-.vtrjgd----dddd-----ddddggjjjjjggdddggjjj....++r----------ddgjjjjjgggdjg
(PID.TID 0000.0001) //     15 jjjjjjjjgdddddgjggggggggdgjx.yjjjggggjjjjjjjjjgggggjjjgjjjdddgjjjjjjjd--jjjjjd------ddddddddddggjjjjjjggddddddggj....++xtjddggdddgjdgggjjjjjjjjj
(PID.TID 0000.0001) //     14 jjjjjjjjjjjjjgdddgjjjgggddgjjjjjjgdgggggggjjgggggggjjjjjggddjjjjjjjd----jjjd------dddddggjggggggjjjjjgggdddddddgjj..+jjjjjjjjjjjjgjjddggjjjjjjjj
(PID.TID 0000.0001) //     13 jjjjjjjgddgggg---gjggggddddjjjjjjgdddgggggggdddddddggjjjjgggjgjjjg------jg------ddddgjjjjjjjjjjjjjjjgggdgd----ddgjjjjjjjjjjjjjjjjggggddgjjjjjjjg
(PID.TID 0000.0001) //     12 gjggdd----dd--------------djjjjjjjdddddgdddddddddddddgjjjjjjjgd-----dddd----dddddddgjjjjjjjjjgggggdddddddddd---dddgjjjjgggjjjjjjjjvggggggjggdd--
(PID.TID 0000.0001) //     11 ------------------------dddddjjjrtjddddddddddddddddddgggjjjjjjjgddddddggddddddgggggjjjjjjgggdggddd--------------ddgjjjjjrrrvttrrjjjgggdd--------
(PID.TID 0000.0001) //     10 ----ggd--------d--ddgdddddgggggjjjjjjjjjjjjjjjjgggjjjjggggjjjjjjjjjjjjjjjjjjjjjjjjjjjjjgggddddd-----------dddddddggjrv..zvjjjggdddddd-------ggd-
(PID.TID 0000.0001) //      9 --ddjjggjjdddddjjggjtw..wrrrrrrrvvvw+........zxx++...zxvttrrjrjjjjjjjjjjjjjjjjjjjjgggggggggddddddddddddddddgdddggjt+...yxrjgdddddddgd-----ddjjgg
(PID.TID 0000.0001) //      8 jjjjjjjtvrjjjjv..............++.............................+trrjjjjjjggjjjjjjggggggdddddddddggjjjjggggddggjjjjjtz....+xxrjgggddddddddddjjjjjjjt
(PID.TID 0000.0001) //      7 .................................................................vttvtjg.vttvtjggggddgggddgggjjjjrttrrvxyzzyyyyy+......xxvtrjjggggggjjv+........
(PID.TID 0000.0001) //      6 ...............................................................+zyyyywjjzyyyywjjjjjgggjjrtwx+.........................+yxxyyyxwttvwy............
(PID.TID 0000.0001) //      5 ................................................................yyyyyyyyyyyyyyyyyyyyz.................................zzz+..+yy+................
(PID.TID 0000.0001) //      4 ................................................................................................................................................
(PID.TID 0000.0001) //      3 ................................................................................................................................................
(PID.TID 0000.0001) //      2 ................................................................................................................................................
(PID.TID 0000.0001) //      1 ................................................................................................................................................
(PID.TID 0000.0001) //      0 ................................................................................................................................................
(PID.TID 0000.0001) //     -1 ................................................................................................................................................
(PID.TID 0000.0001) //     -2 ................................................................................................................................................
(PID.TID 0000.0001) //     -3 ................................................................................................................................................
(PID.TID 0000.0001) // =======================================================
(PID.TID 0000.0001) // END OF FIELD                                          =
(PID.TID 0000.0001) // =======================================================
(PID.TID 0000.0001) 
(PID.TID 0000.0001) // =======================================================
(PID.TID 0000.0001) // Field Model Ro_surf (ini_masks_etc)
(PID.TID 0000.0001) // CMIN =          1.000000000000000E+32
(PID.TID 0000.0001) // CMAX =         -1.000000000000000E+32
(PID.TID 0000.0001) // CINT =          0.000000000000000E+00
(PID.TID 0000.0001) // SYMBOLS (CMIN->CMAX): -abcdefghijklmnopqrstuvwxyz+
(PID.TID 0000.0001) //                  0.0: .
(PID.TID 0000.0001) // RANGE I (Lo:Hi:Step):(    -3:   132:     1)
(PID.TID 0000.0001) // RANGE J (Lo:Hi:Step):(    68:    -3:    -1)
(PID.TID 0000.0001) // RANGE K (Lo:Hi:Step):(   1:   1:   1)
(PID.TID 0000.0001) // =======================================================
(PID.TID 0000.0001) // =======================================================
(PID.TID 0000.0001) // END OF FIELD                                          =
(PID.TID 0000.0001) // =======================================================
(PID.TID 0000.0001) 
(PID.TID 0000.0001) // =======================================================
(PID.TID 0000.0001) // Field hFacC at iteration          0
(PID.TID 0000.0001) // CMIN =          1.000000000000000E+00
(PID.TID 0000.0001) // CMAX =          1.000000000000000E+00
(PID.TID 0000.0001) // CINT =          0.000000000000000E+00
(PID.TID 0000.0001) // SYMBOLS (CMIN->CMAX): -abcdefghijklmnopqrstuvwxyz+
(PID.TID 0000.0001) //                  0.0: .
(PID.TID 0000.0001) // RANGE I (Lo:Hi:Step):(    -3:   132:     1)
(PID.TID 0000.0001) // RANGE J (Lo:Hi:Step):(    68:    -3:    -1)
(PID.TID 0000.0001) // RANGE K (Lo:Hi:Step):(   1:   1:   1)
(PID.TID 0000.0001) // =======================================================
(PID.TID 0000.0001) // =======================================================
(PID.TID 0000.0001) // END OF FIELD                                          =
(PID.TID 0000.0001) // =======================================================
(PID.TID 0000.0001) 
(PID.TID 0000.0001) // =======================================================
(PID.TID 0000.0001) // Field hFacW at iteration          0
(PID.TID 0000.0001) // CMIN =          1.000000000000000E+00
(PID.TID 0000.0001) // CMAX =          1.000000000000000E+00
(PID.TID 0000.0001) // CINT =          0.000000000000000E+00
(PID.TID 0000.0001) // SYMBOLS (CMIN->CMAX): -abcdefghijklmnopqrstuvwxyz+
(PID.TID 0000.0001) //                  0.0: .
(PID.TID 0000.0001) // RANGE I (Lo:Hi:Step):(    -3:   132:     1)
(PID.TID 0000.0001) // RANGE J (Lo:Hi:Step):(    68:    -3:    -1)
(PID.TID 0000.0001) // RANGE K (Lo:Hi:Step):(   1:   1:   1)
(PID.TID 0000.0001) // =======================================================
(PID.TID 0000.0001) // =======================================================
(PID.TID 0000.0001) // END OF FIELD                                          =
(PID.TID 0000.0001) // =======================================================
(PID.TID 0000.0001) 
(PID.TID 0000.0001) // =======================================================
(PID.TID 0000.0001) // Field hFacS at iteration          0
(PID.TID 0000.0001) // CMIN =          1.000000000000000E+00
(PID.TID 0000.0001) // CMAX =          1.000000000000000E+00
(PID.TID 0000.0001) // CINT =          0.000000000000000E+00
(PID.TID 0000.0001) // SYMBOLS (CMIN->CMAX): -abcdefghijklmnopqrstuvwxyz+
(PID.TID 0000.0001) //                  0.0: .
(PID.TID 0000.0001) // RANGE I (Lo:Hi:Step):(    -3:   132:     1)
(PID.TID 0000.0001) // RANGE J (Lo:Hi:Step):(    68:    -3:    -1)
(PID.TID 0000.0001) // RANGE K (Lo:Hi:Step):(   1:   1:   1)
(PID.TID 0000.0001) // =======================================================
(PID.TID 0000.0001) // =======================================================
(PID.TID 0000.0001) // END OF FIELD                                          =
(PID.TID 0000.0001) // =======================================================
(PID.TID 0000.0001) 
(PID.TID 0000.0001) 
(PID.TID 0000.0001) // =======================================================
(PID.TID 0000.0001) // Calendar configuration >>> START <<<
(PID.TID 0000.0001) // =======================================================
(PID.TID 0000.0001) 
(PID.TID 0000.0001) modelstart = /* Start time of the model integration [s] */
(PID.TID 0000.0001)                 2.438553600000000E+11
(PID.TID 0000.0001)     ;
(PID.TID 0000.0001) modelend  = /* End time of the model integration [s] */
(PID.TID 0000.0001)                 2.438555328000000E+11
(PID.TID 0000.0001)     ;
(PID.TID 0000.0001) modelstep = /* Time interval for a model forward step [s] */
(PID.TID 0000.0001)                 4.320000000000000E+04
(PID.TID 0000.0001)     ;
(PID.TID 0000.0001) usingGregorianCalendar= /* Calendar Type: Gregorian Calendar */
(PID.TID 0000.0001)                   F
(PID.TID 0000.0001)     ;
(PID.TID 0000.0001) usingJulianCalendar = /* Calendar Type: Julian Calendar */
(PID.TID 0000.0001)                   F
(PID.TID 0000.0001)     ;
(PID.TID 0000.0001) usingModelCalendar  = /* Calendar Type: Model Calendar */
(PID.TID 0000.0001)                   T
(PID.TID 0000.0001)     ;
(PID.TID 0000.0001) modelstartdate YYYYMMDD = /* Model start date YYYY-MM-DD */
(PID.TID 0000.0001)                98320101
(PID.TID 0000.0001)     ;
(PID.TID 0000.0001)   modelstartdate HHMMSS = /* Model start date HH-MM-SS  */
(PID.TID 0000.0001)                       0
(PID.TID 0000.0001)     ;
(PID.TID 0000.0001) modelenddate   YYYYMMDD = /* Model end date YYYY-MM-DD */
(PID.TID 0000.0001)                98320103
(PID.TID 0000.0001)     ;
(PID.TID 0000.0001)   modelenddate   HHMMSS = /* Model end date HH-MM-SS  */
(PID.TID 0000.0001)                       0
(PID.TID 0000.0001)     ;
(PID.TID 0000.0001) intyears = /* Number of calendar years affected by the integration */
(PID.TID 0000.0001)                       1
(PID.TID 0000.0001)     ;
(PID.TID 0000.0001) intmonths= /* Number of calendar months affected by the integration */
(PID.TID 0000.0001)                       1
(PID.TID 0000.0001)     ;
(PID.TID 0000.0001) intdays = /* Number of calendar days affected by the integration */
(PID.TID 0000.0001)                       2
(PID.TID 0000.0001)     ;
(PID.TID 0000.0001) modeliter0 = /* Base timestep number  */
(PID.TID 0000.0001)                 5644800
(PID.TID 0000.0001)     ;
(PID.TID 0000.0001) modeliterend = /* Final timestep number  */
(PID.TID 0000.0001)                 5644804
(PID.TID 0000.0001)     ;
(PID.TID 0000.0001) modelintsteps= /* Number of model timesteps  */
(PID.TID 0000.0001)                       4
(PID.TID 0000.0001)     ;
(PID.TID 0000.0001) 
(PID.TID 0000.0001) // =======================================================
(PID.TID 0000.0001) // Calendar configuration  >>> END <<<
(PID.TID 0000.0001) // =======================================================
(PID.TID 0000.0001) 
(PID.TID 0000.0001) GAD_INIT_FIXED: GAD_OlMinSize=  1  0  1
(PID.TID 0000.0001) 
(PID.TID 0000.0001) // ===================================
(PID.TID 0000.0001) // GAD parameters :
(PID.TID 0000.0001) // ===================================
(PID.TID 0000.0001) tempAdvScheme =   /* Temp. Horiz.Advection scheme selector */
(PID.TID 0000.0001)                       2
(PID.TID 0000.0001)     ;
(PID.TID 0000.0001) tempVertAdvScheme =   /* Temp. Vert. Advection scheme selector */
(PID.TID 0000.0001)                       2
(PID.TID 0000.0001)     ;
(PID.TID 0000.0001) tempMultiDimAdvec =   /* use Muti-Dim Advec method for Temp */
(PID.TID 0000.0001)                   F
(PID.TID 0000.0001)     ;
(PID.TID 0000.0001) tempSOM_Advection = /* use 2nd Order Moment Advection for Temp */
(PID.TID 0000.0001)                   F
(PID.TID 0000.0001)     ;
(PID.TID 0000.0001) AdamsBashforthGt = /* apply Adams-Bashforth extrapolation on Gt */
(PID.TID 0000.0001)                   T
(PID.TID 0000.0001)     ;
(PID.TID 0000.0001) AdamsBashforth_T = /* apply Adams-Bashforth extrapolation on Temp */
(PID.TID 0000.0001)                   F
(PID.TID 0000.0001)     ;
(PID.TID 0000.0001) saltAdvScheme =   /* Salt. Horiz.advection scheme selector */
(PID.TID 0000.0001)                       2
(PID.TID 0000.0001)     ;
(PID.TID 0000.0001) saltVertAdvScheme =   /* Salt. Vert. Advection scheme selector */
(PID.TID 0000.0001)                       2
(PID.TID 0000.0001)     ;
(PID.TID 0000.0001) saltMultiDimAdvec =   /* use Muti-Dim Advec method for Salt */
(PID.TID 0000.0001)                   F
(PID.TID 0000.0001)     ;
(PID.TID 0000.0001) saltSOM_Advection = /* use 2nd Order Moment Advection for Salt */
(PID.TID 0000.0001)                   F
(PID.TID 0000.0001)     ;
(PID.TID 0000.0001) AdamsBashforthGs = /* apply Adams-Bashforth extrapolation on Gs */
(PID.TID 0000.0001)                   T
(PID.TID 0000.0001)     ;
(PID.TID 0000.0001) AdamsBashforth_S = /* apply Adams-Bashforth extrapolation on Salt */
(PID.TID 0000.0001)                   F
(PID.TID 0000.0001)     ;
(PID.TID 0000.0001) // ===================================
(PID.TID 0000.0001) 
(PID.TID 0000.0001) // =======================================================
(PID.TID 0000.0001) // External forcing (EXF) configuration >>> START <<<
(PID.TID 0000.0001) // =======================================================
(PID.TID 0000.0001) 
(PID.TID 0000.0001)  EXF general parameters:
(PID.TID 0000.0001) 
(PID.TID 0000.0001) exf_iprec = /* exf file precision */
(PID.TID 0000.0001)                      32
(PID.TID 0000.0001)     ;
(PID.TID 0000.0001) useExfYearlyFields = /* add extension _YEAR to input file names */
(PID.TID 0000.0001)                   T
(PID.TID 0000.0001)     ;
(PID.TID 0000.0001) twoDigitYear = /* use 2-digit year extension */
(PID.TID 0000.0001)                   T
(PID.TID 0000.0001)     ;
(PID.TID 0000.0001) exf_verbose = /* print more messages to STDOUT */
(PID.TID 0000.0001)                   F
(PID.TID 0000.0001)     ;
(PID.TID 0000.0001) useExfCheckRange = /* check for fields range */
(PID.TID 0000.0001)                   F
(PID.TID 0000.0001)     ;
(PID.TID 0000.0001) exf_monFreq = /* EXF monitor frequency [ s ] */
(PID.TID 0000.0001)                 4.320000000000000E+04
(PID.TID 0000.0001)     ;
(PID.TID 0000.0001) repeatPeriod = /* period for cycling forcing dataset [ s ] */
(PID.TID 0000.0001)                 0.000000000000000E+00
(PID.TID 0000.0001)     ;
(PID.TID 0000.0001) climTempFreeze= /* Minimum climatological temperature [deg.C] */
(PID.TID 0000.0001)                -1.900000000000000E+00
(PID.TID 0000.0001)     ;
(PID.TID 0000.0001) windStressMax = /* Maximum absolute windstress [ Pa ] */
(PID.TID 0000.0001)                 2.000000000000000E+00
(PID.TID 0000.0001)     ;
(PID.TID 0000.0001) stressIsOnCgrid = /* set u,v_stress on Arakawa C-grid */
(PID.TID 0000.0001)                   F
(PID.TID 0000.0001)     ;
(PID.TID 0000.0001) cen2kel = /* conversion of deg. Centigrade to Kelvin [K] */
(PID.TID 0000.0001)                 2.731500000000000E+02
(PID.TID 0000.0001)     ;
(PID.TID 0000.0001) gravity_mks= /* gravitational acceleration [m/s^2] */
(PID.TID 0000.0001)                 9.810000000000000E+00
(PID.TID 0000.0001)     ;
(PID.TID 0000.0001) atmrho =  /* mean atmospheric density [kg/m^3] */
(PID.TID 0000.0001)                 1.200000000000000E+00
(PID.TID 0000.0001)     ;
(PID.TID 0000.0001) atmcp =  /* mean atmospheric specific heat [J/kg/K] */
(PID.TID 0000.0001)                 1.005000000000000E+03
(PID.TID 0000.0001)     ;
(PID.TID 0000.0001) flamb =  /* latent heat of evaporation [J/kg] */
(PID.TID 0000.0001)                 2.500000000000000E+06
(PID.TID 0000.0001)     ;
(PID.TID 0000.0001) flami =  /* latent heat of pure-ice melting [J/kg] */
(PID.TID 0000.0001)                 3.340000000000000E+05
(PID.TID 0000.0001)     ;
(PID.TID 0000.0001) cvapor_fac = /* const. for Saturation calculation [?] */
(PID.TID 0000.0001)                 6.403800000000000E+05
(PID.TID 0000.0001)     ;
(PID.TID 0000.0001) cvapor_exp = /* const. for Saturation calculation [?] */
(PID.TID 0000.0001)                 5.107400000000000E+03
(PID.TID 0000.0001)     ;
(PID.TID 0000.0001) cvapor_fac_ice= /* const. for Saturation calculation [?] */
(PID.TID 0000.0001)                 1.163780000000000E+07
(PID.TID 0000.0001)     ;
(PID.TID 0000.0001) cvapor_exp_ice= /* const. for Saturation calculation [?] */
(PID.TID 0000.0001)                 5.897800000000000E+03
(PID.TID 0000.0001)     ;
(PID.TID 0000.0001) humid_fac = /* humidity coef. in virtual temp. [(kg/kg)^-1] */
(PID.TID 0000.0001)                 6.060000000000000E-01
(PID.TID 0000.0001)     ;
(PID.TID 0000.0001) gamma_blk = /* adiabatic lapse rate [?] */
(PID.TID 0000.0001)                 1.000000000000000E-02
(PID.TID 0000.0001)     ;
(PID.TID 0000.0001) saltsat = /* reduction of Qsat over salty water [-] */
(PID.TID 0000.0001)                 9.800000000000000E-01
(PID.TID 0000.0001)     ;
(PID.TID 0000.0001) noNegativeEvap = /* prevent negative Evaporation */
(PID.TID 0000.0001)                   F
(PID.TID 0000.0001)     ;
(PID.TID 0000.0001) sstExtrapol = /* extrapolation coeff from lev. 1 & 2 to surf [-] */
(PID.TID 0000.0001)                 0.000000000000000E+00
(PID.TID 0000.0001)     ;
(PID.TID 0000.0001) cDrag_1 = /* coef used in drag calculation [?] */
(PID.TID 0000.0001)                 2.700000000000000E-03
(PID.TID 0000.0001)     ;
(PID.TID 0000.0001) cDrag_2 = /* coef used in drag calculation [?] */
(PID.TID 0000.0001)                 1.420000000000000E-04
(PID.TID 0000.0001)     ;
(PID.TID 0000.0001) cDrag_3 = /* coef used in drag calculation [?] */
(PID.TID 0000.0001)                 7.640000000000000E-05
(PID.TID 0000.0001)     ;
(PID.TID 0000.0001) cStanton_1 = /* coef used in Stanton number calculation [?] */
(PID.TID 0000.0001)                 3.270000000000000E-02
(PID.TID 0000.0001)     ;
(PID.TID 0000.0001) cStanton_2 = /* coef used in Stanton number calculation [?] */
(PID.TID 0000.0001)                 1.800000000000000E-02
(PID.TID 0000.0001)     ;
(PID.TID 0000.0001) cDalton = /* coef used in Dalton number calculation [?] */
(PID.TID 0000.0001)                 3.460000000000000E-02
(PID.TID 0000.0001)     ;
(PID.TID 0000.0001) exf_scal_BulkCdn= /* Drag coefficient scaling factor [-] */
(PID.TID 0000.0001)                 1.000000000000000E+00
(PID.TID 0000.0001)     ;
(PID.TID 0000.0001) zolmin = /* minimum stability parameter [?] */
(PID.TID 0000.0001)                -1.000000000000000E+02
(PID.TID 0000.0001)     ;
(PID.TID 0000.0001) psim_fac = /* coef used in turbulent fluxes calculation [-] */
(PID.TID 0000.0001)                 5.000000000000000E+00
(PID.TID 0000.0001)     ;
(PID.TID 0000.0001) zref =  /* reference height [ m ] */
(PID.TID 0000.0001)                 1.000000000000000E+01
(PID.TID 0000.0001)     ;
(PID.TID 0000.0001) hu =  /* height of mean wind [ m ] */
(PID.TID 0000.0001)                 1.000000000000000E+01
(PID.TID 0000.0001)     ;
(PID.TID 0000.0001) ht =  /* height of mean temperature [ m ] */
(PID.TID 0000.0001)                 2.000000000000000E+00
(PID.TID 0000.0001)     ;
(PID.TID 0000.0001) hq =  /* height of mean spec.humidity [ m ] */
(PID.TID 0000.0001)                 2.000000000000000E+00
(PID.TID 0000.0001)     ;
(PID.TID 0000.0001) uMin = /* minimum wind speed [m/s] */
(PID.TID 0000.0001)                 5.000000000000000E-01
(PID.TID 0000.0001)     ;
(PID.TID 0000.0001) useStabilityFct_overIce= /* transfert Coeffs over sea-ice depend on stability */
(PID.TID 0000.0001)                   F
(PID.TID 0000.0001)     ;
(PID.TID 0000.0001) exf_iceCd = /* drag coefficient over sea-ice (fixed) [-] */
(PID.TID 0000.0001)                 1.630000000000000E-03
(PID.TID 0000.0001)     ;
(PID.TID 0000.0001) exf_iceCe = /* transfert coeff. over sea-ice, for Evap (fixed) [-] */
(PID.TID 0000.0001)                 1.630000000000000E-03
(PID.TID 0000.0001)     ;
(PID.TID 0000.0001) exf_iceCh = /* transfert coeff. over sea-ice, Sens.Heat.(fixed)[-] */
(PID.TID 0000.0001)                 1.630000000000000E-03
(PID.TID 0000.0001)     ;
(PID.TID 0000.0001) exf_albedo =  /* Sea-water albedo [-] */
(PID.TID 0000.0001)                 1.500000000000000E-01
(PID.TID 0000.0001)     ;
(PID.TID 0000.0001) useExfZenAlbedo = /* Sea-water albedo varies with zenith angle */
(PID.TID 0000.0001)                   F
(PID.TID 0000.0001)     ;
(PID.TID 0000.0001) select_ZenAlbedo = /* Sea-water albedo computation method */
(PID.TID 0000.0001)                       0
(PID.TID 0000.0001)     ;
(PID.TID 0000.0001) useExfZenIncoming = /* compute incoming solar radiation */
(PID.TID 0000.0001)                   F
(PID.TID 0000.0001)     ;
(PID.TID 0000.0001) ocean_emissivity = /* longwave ocean-surface emissivity [-] */
(PID.TID 0000.0001)                 9.700176366843034E-01
(PID.TID 0000.0001)     ;
(PID.TID 0000.0001) ice_emissivity = /* longwave seaice emissivity [-] */
(PID.TID 0000.0001)                 9.500000000000000E-01
(PID.TID 0000.0001)     ;
(PID.TID 0000.0001) snow_emissivity = /* longwave snow  emissivity [-] */
(PID.TID 0000.0001)                 9.500000000000000E-01
(PID.TID 0000.0001)     ;
(PID.TID 0000.0001) 
(PID.TID 0000.0001)  EXF main CPP flags:
(PID.TID 0000.0001) 
(PID.TID 0000.0001) // USE_EXF_INTERPOLATION:          NOT defined
(PID.TID 0000.0001) // ALLOW_ATM_TEMP:                     defined
(PID.TID 0000.0001) // ALLOW_ATM_WIND (useAtmWind):        defined
(PID.TID 0000.0001) // ALLOW_DOWNWARD_RADIATION:           defined
(PID.TID 0000.0001) // ALLOW_BULKFORMULAE:                 defined
(PID.TID 0000.0001) 
(PID.TID 0000.0001)    Net shortwave flux forcing starts at                0.
(PID.TID 0000.0001)    Net shortwave flux forcing period is                0.
(PID.TID 0000.0001)    Net shortwave flux forcing is read from file:
(PID.TID 0000.0001)    >>    <<
(PID.TID 0000.0001) 
(PID.TID 0000.0001)    Zonal wind forcing starts at                          0.
(PID.TID 0000.0001)    Zonal wind forcing period is                          0.
(PID.TID 0000.0001)    Zonal wind forcing is read from file:
(PID.TID 0000.0001)    >>    <<
(PID.TID 0000.0001) 
(PID.TID 0000.0001)    Meridional wind forcing starts at                     0.
(PID.TID 0000.0001)    Meridional wind forcing period is                     0.
(PID.TID 0000.0001)    Meridional wind forcing is read from file:
(PID.TID 0000.0001)    >>    <<
(PID.TID 0000.0001) 
(PID.TID 0000.0001)    Atmospheric temperature starts at                     0.
(PID.TID 0000.0001)    Atmospheric temperature period is                     0.
(PID.TID 0000.0001)    Atmospheric temperature is read from file:
(PID.TID 0000.0001)    >>    <<
(PID.TID 0000.0001) 
(PID.TID 0000.0001)    Atmospheric specific humidity starts at               0.
(PID.TID 0000.0001)    Atmospheric specific humidity period is               0.
(PID.TID 0000.0001)    Atmospheric specific humidity is read from file:
(PID.TID 0000.0001)    >>    <<
(PID.TID 0000.0001) 
(PID.TID 0000.0001)    Net longwave flux forcing starts at                 0.
(PID.TID 0000.0001)    Net longwave flux forcing period is                 0.
(PID.TID 0000.0001)    Net longwave flux forcing is read from file:
(PID.TID 0000.0001)    >>    <<
(PID.TID 0000.0001) 
(PID.TID 0000.0001)    Precipitation data set starts at                      0.
(PID.TID 0000.0001)    Precipitation data period is                          0.
(PID.TID 0000.0001)    Precipitation data is read from file:
(PID.TID 0000.0001)    >>    <<
(PID.TID 0000.0001) 
(PID.TID 0000.0001) // EXF_READ_EVAP:                  NOT defined
(PID.TID 0000.0001) 
(PID.TID 0000.0001) // ALLOW_RUNOFF:                       defined
(PID.TID 0000.0001)    Runoff starts at               0.
(PID.TID 0000.0001)    Runoff period is               0.
(PID.TID 0000.0001)    Runoff is read from file:
(PID.TID 0000.0001)    >>    <<
(PID.TID 0000.0001) 
(PID.TID 0000.0001)    Downward shortwave flux forcing starts at                0.
(PID.TID 0000.0001)    Downward shortwave flux forcing period is                0.
(PID.TID 0000.0001)    Downward shortwave flux forcing is read from file:
(PID.TID 0000.0001)    >>    <<
(PID.TID 0000.0001) 
(PID.TID 0000.0001)    Downward longwave flux forcing starts at                 0.
(PID.TID 0000.0001)    Downward longwave flux forcing period is                 0.
(PID.TID 0000.0001)    Downward longwave flux forcing is read from file:
(PID.TID 0000.0001)    >>    <<
(PID.TID 0000.0001) 
(PID.TID 0000.0001)    Atmospheric pressure forcing starts at                0.
(PID.TID 0000.0001)    Atmospheric pressure forcing period is                0.
(PID.TID 0000.0001)    Atmospheric pressureforcing is read from file:
(PID.TID 0000.0001)    >>    <<
(PID.TID 0000.0001) 
(PID.TID 0000.0001) // =======================================================
(PID.TID 0000.0001) // External forcing (EXF) climatology configuration :
(PID.TID 0000.0001) // =======================================================
(PID.TID 0000.0001) 
(PID.TID 0000.0001) // ALLOW_CLIMSST_RELAXATION:       NOT defined
(PID.TID 0000.0001) // ALLOW_CLIMSSS_RELAXATION:       NOT defined
(PID.TID 0000.0001) 
(PID.TID 0000.0001) // =======================================================
(PID.TID 0000.0001) // External forcing (EXF) configuration  >>> END <<<
(PID.TID 0000.0001) // =======================================================
(PID.TID 0000.0001) 
(PID.TID 0000.0001) ------------------------------------------------------------
(PID.TID 0000.0001) DIAGNOSTICS_SET_LEVELS: done
(PID.TID 0000.0001)  Total Nb of available Diagnostics: ndiagt=  2283
(PID.TID 0000.0001)  write list of available Diagnostics to file: available_diagnostics.log
(PID.TID 0000.0001) SETDIAG: Allocate 15 x  1 Levels for Diagnostic #   224 TRAC01
(PID.TID 0000.0001) SETDIAG: Allocate 15 x  1 Levels for Diagnostic #   236 TRAC02
(PID.TID 0000.0001) SETDIAG: Allocate 15 x  1 Levels for Diagnostic #   248 TRAC03
(PID.TID 0000.0001) SETDIAG: Allocate 15 x  1 Levels for Diagnostic #   260 TRAC04
(PID.TID 0000.0001) SETDIAG: Allocate 15 x  1 Levels for Diagnostic #   272 TRAC05
(PID.TID 0000.0001) SETDIAG: Allocate 15 x  1 Levels for Diagnostic #   284 TRAC06
(PID.TID 0000.0001) SETDIAG: Allocate 15 x  1 Levels for Diagnostic #   296 TRAC07
(PID.TID 0000.0001) SETDIAG: Allocate 15 x  1 Levels for Diagnostic #   308 TRAC08
(PID.TID 0000.0001) SETDIAG: Allocate 15 x  1 Levels for Diagnostic #   320 TRAC09
(PID.TID 0000.0001) SETDIAG: Allocate 15 x  1 Levels for Diagnostic #   332 TRAC10
(PID.TID 0000.0001) SETDIAG: Allocate 15 x  1 Levels for Diagnostic #   344 TRAC11
(PID.TID 0000.0001) SETDIAG: Allocate 15 x  1 Levels for Diagnostic #   356 TRAC12
(PID.TID 0000.0001) SETDIAG: Allocate 15 x  1 Levels for Diagnostic #   368 TRAC13
(PID.TID 0000.0001) SETDIAG: Allocate 15 x  1 Levels for Diagnostic #   380 TRAC14
(PID.TID 0000.0001) SETDIAG: Allocate 15 x  1 Levels for Diagnostic #   392 TRAC15
(PID.TID 0000.0001) SETDIAG: Allocate 15 x  1 Levels for Diagnostic #   404 TRAC16
(PID.TID 0000.0001) SETDIAG: Allocate 15 x  1 Levels for Diagnostic #   416 TRAC17
(PID.TID 0000.0001) SETDIAG: Allocate 15 x  1 Levels for Diagnostic #   428 TRAC18
(PID.TID 0000.0001) SETDIAG: Allocate 15 x  1 Levels for Diagnostic #   440 TRAC19
(PID.TID 0000.0001) SETDIAG: Allocate 15 x  1 Levels for Diagnostic #   452 TRAC20
(PID.TID 0000.0001) SETDIAG: Allocate 15 x  1 Levels for Diagnostic #   464 TRAC21
(PID.TID 0000.0001) SETDIAG: Allocate 15 x  1 Levels for Diagnostic #   476 TRAC22
(PID.TID 0000.0001) SETDIAG: Allocate 15 x  1 Levels for Diagnostic #   488 TRAC23
(PID.TID 0000.0001) SETDIAG: Allocate 15 x  1 Levels for Diagnostic #   500 TRAC24
(PID.TID 0000.0001) SETDIAG: Allocate 15 x  1 Levels for Diagnostic #   512 TRAC25
(PID.TID 0000.0001) SETDIAG: Allocate 15 x  1 Levels for Diagnostic #   524 TRAC26
(PID.TID 0000.0001) SETDIAG: Allocate 15 x  1 Levels for Diagnostic #   536 TRAC27
(PID.TID 0000.0001) SETDIAG: Allocate 15 x  1 Levels for Diagnostic #   548 TRAC28
(PID.TID 0000.0001) SETDIAG: Allocate 15 x  1 Levels for Diagnostic #   560 TRAC29
(PID.TID 0000.0001) SETDIAG: Allocate 15 x  1 Levels for Diagnostic #   572 TRAC30
(PID.TID 0000.0001) SETDIAG: Allocate 15 x  1 Levels for Diagnostic #   584 TRAC31
(PID.TID 0000.0001) SETDIAG: Allocate 15 x  1 Levels for Diagnostic #   596 TRAC32
(PID.TID 0000.0001) SETDIAG: Allocate 15 x  1 Levels for Diagnostic #   608 TRAC33
(PID.TID 0000.0001) SETDIAG: Allocate 15 x  1 Levels for Diagnostic #   620 TRAC34
(PID.TID 0000.0001) SETDIAG: Allocate 15 x  1 Levels for Diagnostic #   632 TRAC35
(PID.TID 0000.0001) SETDIAG: Allocate 15 x  1 Levels for Diagnostic #   644 TRAC36
(PID.TID 0000.0001) SETDIAG: Allocate 15 x  1 Levels for Diagnostic #   656 TRAC37
(PID.TID 0000.0001) SETDIAG: Allocate 15 x  1 Levels for Diagnostic #   668 TRAC38
(PID.TID 0000.0001) SETDIAG: Allocate 15 x  1 Levels for Diagnostic #   680 TRAC39
(PID.TID 0000.0001) SETDIAG: Allocate 15 x  1 Levels for Diagnostic #   692 TRAC40
(PID.TID 0000.0001) SETDIAG: Allocate 15 x  1 Levels for Diagnostic #   704 TRAC41
(PID.TID 0000.0001) SETDIAG: Allocate 15 x  1 Levels for Diagnostic #   716 TRAC42
(PID.TID 0000.0001) SETDIAG: Allocate 15 x  1 Levels for Diagnostic #   728 TRAC43
(PID.TID 0000.0001) SETDIAG: Allocate 15 x  1 Levels for Diagnostic #   740 TRAC44
(PID.TID 0000.0001) SETDIAG: Allocate 15 x  1 Levels for Diagnostic #   752 TRAC45
(PID.TID 0000.0001) SETDIAG: Allocate 15 x  1 Levels for Diagnostic #   764 TRAC46
(PID.TID 0000.0001) SETDIAG: Allocate 15 x  1 Levels for Diagnostic #   776 TRAC47
(PID.TID 0000.0001) SETDIAG: Allocate 15 x  1 Levels for Diagnostic #   788 TRAC48
(PID.TID 0000.0001) SETDIAG: Allocate 15 x  1 Levels for Diagnostic #   800 TRAC49
(PID.TID 0000.0001) SETDIAG: Allocate 15 x  1 Levels for Diagnostic #   812 TRAC50
(PID.TID 0000.0001) SETDIAG: Allocate 15 x  1 Levels for Diagnostic #   824 TRAC51
(PID.TID 0000.0001) SETDIAG: Allocate 15 x  1 Levels for Diagnostic #   836 TRAC52
(PID.TID 0000.0001) SETDIAG: Allocate 15 x  1 Levels for Diagnostic #   848 TRAC53
(PID.TID 0000.0001) SETDIAG: Allocate 15 x  1 Levels for Diagnostic #   860 TRAC54
(PID.TID 0000.0001) SETDIAG: Allocate 15 x  1 Levels for Diagnostic #   872 TRAC55
(PID.TID 0000.0001) SETDIAG: Allocate 15 x  1 Levels for Diagnostic #   884 TRAC56
(PID.TID 0000.0001) SETDIAG: Allocate 15 x  1 Levels for Diagnostic #   896 TRAC57
(PID.TID 0000.0001) SETDIAG: Allocate 15 x  1 Levels for Diagnostic #   908 TRAC58
(PID.TID 0000.0001) SETDIAG: Allocate 15 x  1 Levels for Diagnostic #   920 TRAC59
(PID.TID 0000.0001) SETDIAG: Allocate 15 x  1 Levels for Diagnostic #   932 TRAC60
(PID.TID 0000.0001) SETDIAG: Allocate 15 x  1 Levels for Diagnostic #   944 TRAC61
(PID.TID 0000.0001) SETDIAG: Allocate 15 x  1 Levels for Diagnostic #   956 TRAC62
(PID.TID 0000.0001) SETDIAG: Allocate 15 x  1 Levels for Diagnostic #   968 TRAC63
(PID.TID 0000.0001) SETDIAG: Allocate 15 x  1 Levels for Diagnostic #   980 TRAC64
(PID.TID 0000.0001) SETDIAG: Allocate 15 x  1 Levels for Diagnostic #   992 TRAC65
(PID.TID 0000.0001) SETDIAG: Allocate 15 x  1 Levels for Diagnostic #  1004 TRAC66
(PID.TID 0000.0001) SETDIAG: Allocate 15 x  1 Levels for Diagnostic #  1016 TRAC67
(PID.TID 0000.0001) SETDIAG: Allocate 15 x  1 Levels for Diagnostic #  1028 TRAC68
(PID.TID 0000.0001) SETDIAG: Allocate 15 x  1 Levels for Diagnostic #  1040 TRAC69
(PID.TID 0000.0001) SETDIAG: Allocate 15 x  1 Levels for Diagnostic #  1052 TRAC70
(PID.TID 0000.0001) SETDIAG: Allocate 15 x  1 Levels for Diagnostic #  1064 TRAC71
(PID.TID 0000.0001) SETDIAG: Allocate 15 x  1 Levels for Diagnostic #  1076 TRAC72
(PID.TID 0000.0001) SETDIAG: Allocate 15 x  1 Levels for Diagnostic #  1088 TRAC73
(PID.TID 0000.0001) SETDIAG: Allocate 15 x  1 Levels for Diagnostic #  1100 TRAC74
(PID.TID 0000.0001) SETDIAG: Allocate 15 x  1 Levels for Diagnostic #  1112 TRAC75
(PID.TID 0000.0001) SETDIAG: Allocate 15 x  1 Levels for Diagnostic #  1124 TRAC76
(PID.TID 0000.0001) SETDIAG: Allocate 15 x  1 Levels for Diagnostic #  1136 TRAC77
(PID.TID 0000.0001) SETDIAG: Allocate 15 x  1 Levels for Diagnostic #  1148 TRAC78
(PID.TID 0000.0001) SETDIAG: Allocate 15 x  1 Levels for Diagnostic #  1160 TRAC79
(PID.TID 0000.0001) SETDIAG: Allocate 15 x  1 Levels for Diagnostic #  1172 TRAC80
(PID.TID 0000.0001) SETDIAG: Allocate 15 x  1 Levels for Diagnostic #  1184 TRAC81
(PID.TID 0000.0001) SETDIAG: Allocate 15 x  1 Levels for Diagnostic #  1196 TRAC82
(PID.TID 0000.0001) SETDIAG: Allocate 15 x  1 Levels for Diagnostic #  1208 TRAC83
(PID.TID 0000.0001) SETDIAG: Allocate 15 x  1 Levels for Diagnostic #  1220 TRAC84
(PID.TID 0000.0001) SETDIAG: Allocate 15 x  1 Levels for Diagnostic #  1232 TRAC85
(PID.TID 0000.0001) SETDIAG: Allocate 15 x  1 Levels for Diagnostic #  1244 TRAC86
(PID.TID 0000.0001) SETDIAG: Allocate 15 x  1 Levels for Diagnostic #  1256 TRAC87
(PID.TID 0000.0001) SETDIAG: Allocate 15 x  1 Levels for Diagnostic #  1268 TRAC88
(PID.TID 0000.0001) SETDIAG: Allocate 15 x  1 Levels for Diagnostic #  1280 TRAC89
(PID.TID 0000.0001) SETDIAG: Allocate 15 x  1 Levels for Diagnostic #  1292 TRAC90
(PID.TID 0000.0001) SETDIAG: Allocate 15 x  1 Levels for Diagnostic #  1304 TRAC91
(PID.TID 0000.0001) SETDIAG: Allocate 15 x  1 Levels for Diagnostic #  1316 TRAC92
(PID.TID 0000.0001) SETDIAG: Allocate 15 x  1 Levels for Diagnostic #  1328 TRAC93
(PID.TID 0000.0001) SETDIAG: Allocate 15 x  1 Levels for Diagnostic #  1340 TRAC94
(PID.TID 0000.0001) SETDIAG: Allocate 15 x  1 Levels for Diagnostic #  1352 TRAC95
(PID.TID 0000.0001) SETDIAG: Allocate 15 x  1 Levels for Diagnostic #  1364 TRAC96
(PID.TID 0000.0001) SETDIAG: Allocate 15 x  1 Levels for Diagnostic #  1376 TRAC97
(PID.TID 0000.0001) SETDIAG: Allocate 15 x  1 Levels for Diagnostic #  1393 PAR01
(PID.TID 0000.0001) SETDIAG: Allocate 15 x  1 Levels for Diagnostic #  1400 DIC_c01
(PID.TID 0000.0001) SETDIAG: Allocate 15 x  1 Levels for Diagnostic #  1411 DIC_c02
(PID.TID 0000.0001) SETDIAG: Allocate 15 x  1 Levels for Diagnostic #  1401 c01_DOC
(PID.TID 0000.0001) SETDIAG: Allocate 15 x  1 Levels for Diagnostic #  1412 c02_DOC
(PID.TID 0000.0001) SETDIAG: Allocate 15 x  1 Levels for Diagnostic #  1402 c01_POC
(PID.TID 0000.0001) SETDIAG: Allocate 15 x  1 Levels for Diagnostic #  1413 c02_POC
(PID.TID 0000.0001) SETDIAG: Allocate 15 x  1 Levels for Diagnostic #  1392 PARF
(PID.TID 0000.0001) SETDIAG: Allocate 15 x  1 Levels for Diagnostic #  1389 atten
(PID.TID 0000.0001) SETDIAG: Allocate 15 x  1 Levels for Diagnostic #  1391 surfPAR
(PID.TID 0000.0001) SETDIAG: Allocate 15 x  1 Levels for Diagnostic #  1390 exfPAR
(PID.TID 0000.0001) SETDIAG: Allocate 15 x  1 Levels for Diagnostic #  1394 limn01
(PID.TID 0000.0001) SETDIAG: Allocate 15 x  1 Levels for Diagnostic #  1395 limp01
(PID.TID 0000.0001) SETDIAG: Allocate 15 x  1 Levels for Diagnostic #  1396 limsi01
(PID.TID 0000.0001) SETDIAG: Allocate 15 x  1 Levels for Diagnostic #  1397 limfe01
(PID.TID 0000.0001) SETDIAG: Allocate 15 x  1 Levels for Diagnostic #  1398 limI01
(PID.TID 0000.0001) SETDIAG: Allocate 15 x  1 Levels for Diagnostic #  1399 limT01
(PID.TID 0000.0001) SETDIAG: Allocate 15 x  1 Levels for Diagnostic #  1403 c01_c
(PID.TID 0000.0001) SETDIAG: Allocate 15 x  1 Levels for Diagnostic #  1414 c02_c
(PID.TID 0000.0001) SETDIAG: Allocate 15 x  1 Levels for Diagnostic #  1426 c_c03
(PID.TID 0000.0001) SETDIAG: Allocate 15 x  1 Levels for Diagnostic #  1437 c_c04
(PID.TID 0000.0001) SETDIAG: Allocate 15 x  1 Levels for Diagnostic #  2274 c_DOC
(PID.TID 0000.0001) SETDIAG: Allocate 15 x  1 Levels for Diagnostic #  2275 c_POC
(PID.TID 0000.0001) SETDIAG: Allocate 15 x  1 Levels for Diagnostic #  2276 c_PIC
(PID.TID 0000.0001) SETDIAG: Allocate 15 x  1 Levels for Diagnostic #  2277 n_DON
(PID.TID 0000.0001) SETDIAG: Allocate 15 x  1 Levels for Diagnostic #  2278 n_PON
(PID.TID 0000.0001) SETDIAG: Allocate 15 x  1 Levels for Diagnostic #  2279 p_DOP
(PID.TID 0000.0001) SETDIAG: Allocate 15 x  1 Levels for Diagnostic #  2280 p_POP
(PID.TID 0000.0001)   space allocated for all diagnostics:    1875 levels
(PID.TID 0000.0001) DIAGNOSTICS_SET_POINTERS: Set levels for Outp.Stream: darwin
(PID.TID 0000.0001)  Levels:       1.   2.   3.   4.   5.   6.   7.   8.   9.  10.  11.  12.  13.  14.  15.
(PID.TID 0000.0001) DIAGNOSTICS_SET_POINTERS: done
(PID.TID 0000.0001) ------------------------------------------------------------
(PID.TID 0000.0001) DIAGSTATS_SET_REGIONS: define no region
(PID.TID 0000.0001) ------------------------------------------------------------
(PID.TID 0000.0001)   space allocated for all stats-diags:       0 levels
(PID.TID 0000.0001) DIAGSTATS_SET_POINTERS: done
(PID.TID 0000.0001) ------------------------------------------------------------
(PID.TID 0000.0001) %MON fCori_max                    =   1.4579854531444176E-04
(PID.TID 0000.0001) %MON fCori_min                    =  -1.4579854531444176E-04
(PID.TID 0000.0001) %MON fCori_mean                   =   9.5291206566108788E-22
(PID.TID 0000.0001) %MON fCori_sd                     =   1.0312619976227602E-04
(PID.TID 0000.0001) %MON fCoriG_max                   =   1.4566679669713735E-04
(PID.TID 0000.0001) %MON fCoriG_min                   =  -1.4584247033980750E-04
(PID.TID 0000.0001) %MON fCoriG_mean                  =  -2.2787885990594938E-06
(PID.TID 0000.0001) %MON fCoriG_sd                    =   1.0310101939326063E-04
(PID.TID 0000.0001) %MON fCoriCos_max                 =   1.4579854531444176E-04
(PID.TID 0000.0001) %MON fCoriCos_min                 =   3.5791533929552697E-06
(PID.TID 0000.0001) %MON fCoriCos_mean                =   9.2855522572227709E-05
(PID.TID 0000.0001) %MON fCoriCos_sd                  =   4.4864964117306900E-05
(PID.TID 0000.0001) INI_CG2D: CG2D normalisation factor =  6.8918025187312258E-05
(PID.TID 0000.0001) 
(PID.TID 0000.0001) // =======================================================
(PID.TID 0000.0001) // Model configuration
(PID.TID 0000.0001) // =======================================================
(PID.TID 0000.0001) //
(PID.TID 0000.0001) // "Physical" paramters ( PARM01 in namelist )
(PID.TID 0000.0001) //
(PID.TID 0000.0001) buoyancyRelation = /* Type of relation to get Buoyancy */
(PID.TID 0000.0001)               'OCEANIC'
(PID.TID 0000.0001)     ;
(PID.TID 0000.0001) fluidIsAir   =  /* fluid major constituent is Air */
(PID.TID 0000.0001)                   F
(PID.TID 0000.0001)     ;
(PID.TID 0000.0001) fluidIsWater =  /* fluid major constituent is Water */
(PID.TID 0000.0001)                   T
(PID.TID 0000.0001)     ;
(PID.TID 0000.0001) usingPCoords =  /* use p (or p*) vertical coordinate */
(PID.TID 0000.0001)                   F
(PID.TID 0000.0001)     ;
(PID.TID 0000.0001) usingZCoords =  /* use z (or z*) vertical coordinate */
(PID.TID 0000.0001)                   T
(PID.TID 0000.0001)     ;
(PID.TID 0000.0001) tRef =   /* Reference temperature profile ( oC or K ) */
(PID.TID 0000.0001)    15 @  2.000000000000000E+01              /* K =  1: 15 */
(PID.TID 0000.0001)     ;
(PID.TID 0000.0001) sRef =   /* Reference salinity profile ( psu ) */
(PID.TID 0000.0001)    15 @  3.500000000000000E+01              /* K =  1: 15 */
(PID.TID 0000.0001)     ;
(PID.TID 0000.0001) viscAh  =   /* Lateral eddy viscosity ( m^2/s ) */
(PID.TID 0000.0001)                 5.000000000000000E+05
(PID.TID 0000.0001)     ;
(PID.TID 0000.0001) viscAhMax = /* Maximum lateral eddy viscosity ( m^2/s ) */
(PID.TID 0000.0001)                 1.000000000000000E+21
(PID.TID 0000.0001)     ;
(PID.TID 0000.0001) viscAhGrid = /* Grid dependent lateral eddy viscosity ( non-dim. ) */
(PID.TID 0000.0001)                 0.000000000000000E+00
(PID.TID 0000.0001)     ;
(PID.TID 0000.0001) useFullLeith = /* Use Full Form of Leith Viscosity on/off flag*/
(PID.TID 0000.0001)                   F
(PID.TID 0000.0001)     ;
(PID.TID 0000.0001) useStrainTensionVisc= /* Use StrainTension Form of Viscous Operator flag*/
(PID.TID 0000.0001)                   F
(PID.TID 0000.0001)     ;
(PID.TID 0000.0001) useAreaViscLength = /* Use area for visc length instead of geom. mean*/
(PID.TID 0000.0001)                   F
(PID.TID 0000.0001)     ;
(PID.TID 0000.0001) viscC2leith = /* Leith harmonic visc. factor (on grad(vort),non-dim.) */
(PID.TID 0000.0001)                 0.000000000000000E+00
(PID.TID 0000.0001)     ;
(PID.TID 0000.0001) viscC2leithD = /* Leith harmonic viscosity factor (on grad(div),non-dim.)*/
(PID.TID 0000.0001)                 0.000000000000000E+00
(PID.TID 0000.0001)     ;
(PID.TID 0000.0001) viscC2smag = /* Smagorinsky harmonic viscosity factor (non-dim.) */
(PID.TID 0000.0001)                 0.000000000000000E+00
(PID.TID 0000.0001)     ;
(PID.TID 0000.0001) viscA4  =   /* Lateral biharmonic viscosity ( m^4/s ) */
(PID.TID 0000.0001)                 0.000000000000000E+00
(PID.TID 0000.0001)     ;
(PID.TID 0000.0001) viscA4Max = /* Maximum biharmonic viscosity ( m^2/s ) */
(PID.TID 0000.0001)                 1.000000000000000E+21
(PID.TID 0000.0001)     ;
(PID.TID 0000.0001) viscA4Grid = /* Grid dependent biharmonic viscosity ( non-dim. ) */
(PID.TID 0000.0001)                 0.000000000000000E+00
(PID.TID 0000.0001)     ;
(PID.TID 0000.0001) viscC4leith = /* Leith biharm viscosity factor (on grad(vort), non-dim.)*/
(PID.TID 0000.0001)                 0.000000000000000E+00
(PID.TID 0000.0001)     ;
(PID.TID 0000.0001) viscC4leithD = /* Leith biharm viscosity factor (on grad(div), non-dim.) */
(PID.TID 0000.0001)                 0.000000000000000E+00
(PID.TID 0000.0001)     ;
(PID.TID 0000.0001) viscC4Smag = /* Smagorinsky biharm viscosity factor (non-dim) */
(PID.TID 0000.0001)                 0.000000000000000E+00
(PID.TID 0000.0001)     ;
(PID.TID 0000.0001) no_slip_sides =  /* Viscous BCs: No-slip sides */
(PID.TID 0000.0001)                   T
(PID.TID 0000.0001)     ;
(PID.TID 0000.0001) sideDragFactor = /* side-drag scaling factor (non-dim) */
(PID.TID 0000.0001)                 2.000000000000000E+00
(PID.TID 0000.0001)     ;
(PID.TID 0000.0001) viscArNr = /* vertical profile of vertical viscosity ( m^2/s )*/
(PID.TID 0000.0001)    15 @  1.000000000000000E-03              /* K =  1: 15 */
(PID.TID 0000.0001)     ;
(PID.TID 0000.0001) no_slip_bottom =  /* Viscous BCs: No-slip bottom */
(PID.TID 0000.0001)                   T
(PID.TID 0000.0001)     ;
(PID.TID 0000.0001) bottomDragLinear = /* linear bottom-drag coefficient ( m/s ) */
(PID.TID 0000.0001)                 0.000000000000000E+00
(PID.TID 0000.0001)     ;
(PID.TID 0000.0001) bottomDragQuadratic = /* quadratic bottom-drag coefficient (-) */
(PID.TID 0000.0001)                 0.000000000000000E+00
(PID.TID 0000.0001)     ;
(PID.TID 0000.0001) diffKhT =   /* Laplacian diffusion of heat laterally ( m^2/s ) */
(PID.TID 0000.0001)                 0.000000000000000E+00
(PID.TID 0000.0001)     ;
(PID.TID 0000.0001) diffK4T =   /* Biharmonic diffusion of heat laterally ( m^4/s ) */
(PID.TID 0000.0001)                 0.000000000000000E+00
(PID.TID 0000.0001)     ;
(PID.TID 0000.0001) diffKhS =   /* Laplacian diffusion of salt laterally ( m^2/s ) */
(PID.TID 0000.0001)                 0.000000000000000E+00
(PID.TID 0000.0001)     ;
(PID.TID 0000.0001) diffK4S =   /* Biharmonic diffusion of salt laterally ( m^4/s ) */
(PID.TID 0000.0001)                 0.000000000000000E+00
(PID.TID 0000.0001)     ;
(PID.TID 0000.0001) diffKrNrT = /* vertical profile of vertical diffusion of Temp ( m^2/s )*/
(PID.TID 0000.0001)    15 @  5.000000000000000E-05              /* K =  1: 15 */
(PID.TID 0000.0001)     ;
(PID.TID 0000.0001) diffKrNrS = /* vertical profile of vertical diffusion of Salt ( m^2/s )*/
(PID.TID 0000.0001)    15 @  5.000000000000000E-05              /* K =  1: 15 */
(PID.TID 0000.0001)     ;
(PID.TID 0000.0001) diffKrBL79surf = /* Surface diffusion for Bryan and Lewis 79 ( m^2/s ) */
(PID.TID 0000.0001)                 0.000000000000000E+00
(PID.TID 0000.0001)     ;
(PID.TID 0000.0001) diffKrBL79deep = /* Deep diffusion for Bryan and Lewis 1979 ( m^2/s ) */
(PID.TID 0000.0001)                 0.000000000000000E+00
(PID.TID 0000.0001)     ;
(PID.TID 0000.0001) diffKrBL79scl = /* Depth scale for Bryan and Lewis 1979 ( m ) */
(PID.TID 0000.0001)                 2.000000000000000E+02
(PID.TID 0000.0001)     ;
(PID.TID 0000.0001) diffKrBL79Ho = /* Turning depth for Bryan and Lewis 1979 ( m ) */
(PID.TID 0000.0001)                -2.000000000000000E+03
(PID.TID 0000.0001)     ;
(PID.TID 0000.0001) ivdc_kappa = /* Implicit Vertical Diffusivity for Convection ( m^2/s) */
(PID.TID 0000.0001)                 1.000000000000000E+02
(PID.TID 0000.0001)     ;
(PID.TID 0000.0001) hMixCriteria=  /* Criteria for mixed-layer diagnostic */
(PID.TID 0000.0001)                -8.000000000000000E-01
(PID.TID 0000.0001)     ;
(PID.TID 0000.0001) dRhoSmall =  /* Parameter for mixed-layer diagnostic */
(PID.TID 0000.0001)                 1.000000000000000E-06
(PID.TID 0000.0001)     ;
(PID.TID 0000.0001) hMixSmooth=  /* Smoothing parameter for mixed-layer diagnostic */
(PID.TID 0000.0001)                 0.000000000000000E+00
(PID.TID 0000.0001)     ;
(PID.TID 0000.0001) eosType =  /* Type of Equation of State */
(PID.TID 0000.0001)               'POLY3 '
(PID.TID 0000.0001)     ;
(PID.TID 0000.0001)   1  13.497  32.600  24.570  -0.202   0.771  -0.005  -0.002   0.000   0.000   0.000   0.000   0.000
(PID.TID 0000.0001)   2  13.488  32.600  24.840  -0.203   0.770  -0.005  -0.002   0.000   0.000   0.000   0.000   0.000
(PID.TID 0000.0001)   3  13.476  32.600  25.221  -0.205   0.770  -0.005  -0.002   0.000   0.000   0.000   0.000   0.000
(PID.TID 0000.0001)   4   8.469  35.150  28.657  -0.163   0.781  -0.005  -0.002   0.001   0.000   0.000   0.000   0.000
(PID.TID 0000.0001)   5   8.451  35.150  29.405  -0.167   0.780  -0.005  -0.002   0.001   0.000   0.000   0.000   0.000
(PID.TID 0000.0001)   6   5.940  34.900  30.574  -0.145   0.784  -0.006  -0.002   0.001   0.000   0.000   0.000   0.000
(PID.TID 0000.0001)   7   4.425  34.900  31.991  -0.135   0.786  -0.006  -0.003   0.000   0.000   0.000   0.000   0.000
(PID.TID 0000.0001)   8   2.911  34.750  33.505  -0.125   0.787  -0.006  -0.003  -0.000   0.000   0.000   0.000   0.000
(PID.TID 0000.0001)   9   1.893  34.800  35.333  -0.123   0.787  -0.006  -0.003  -0.000   0.000   0.000   0.000   0.000
(PID.TID 0000.0001)  10   1.367  34.800  37.279  -0.129   0.785  -0.006  -0.003  -0.001   0.000   0.000   0.000   0.000
(PID.TID 0000.0001)  11   1.328  34.800  39.372  -0.141   0.781  -0.006  -0.003  -0.002   0.000   0.000   0.000   0.000
(PID.TID 0000.0001)  12   0.792  34.800  41.739  -0.149   0.778  -0.006  -0.003  -0.001   0.000   0.000   0.000   0.000
(PID.TID 0000.0001)  13   0.737  34.750  44.192  -0.163   0.774  -0.005  -0.002  -0.003   0.000   0.000   0.000   0.000
(PID.TID 0000.0001)  14   0.188  34.750  46.956  -0.174   0.770  -0.005  -0.002  -0.002   0.000   0.000   0.000   0.000
(PID.TID 0000.0001)  15   0.596  34.750  49.726  -0.195   0.764  -0.005  -0.002  -0.001   0.000   0.000   0.000   0.000
(PID.TID 0000.0001) celsius2K = /* 0 degree Celsius converted to Kelvin ( K ) */
(PID.TID 0000.0001)                 2.731500000000000E+02
(PID.TID 0000.0001)     ;
(PID.TID 0000.0001) rhoConst  = /* Reference density (Boussinesq)  ( kg/m^3 ) */
(PID.TID 0000.0001)                 1.035000000000000E+03
(PID.TID 0000.0001)     ;
(PID.TID 0000.0001) rhoFacC = /* normalized Reference density @ cell-Center (-) */
(PID.TID 0000.0001)    15 @  1.000000000000000E+00              /* K =  1: 15 */
(PID.TID 0000.0001)     ;
(PID.TID 0000.0001) rhoFacF = /* normalized Reference density @ W-Interface (-) */
(PID.TID 0000.0001)    16 @  1.000000000000000E+00              /* K =  1: 16 */
(PID.TID 0000.0001)     ;
(PID.TID 0000.0001) rhoConstFresh = /* Fresh-water reference density ( kg/m^3 ) */
(PID.TID 0000.0001)                 1.035000000000000E+03
(PID.TID 0000.0001)     ;
(PID.TID 0000.0001) gravity =   /* Gravitational acceleration ( m/s^2 ) */
(PID.TID 0000.0001)                 9.810000000000000E+00
(PID.TID 0000.0001)     ;
(PID.TID 0000.0001) gBaro =   /* Barotropic gravity ( m/s^2 ) */
(PID.TID 0000.0001)                 9.810000000000000E+00
(PID.TID 0000.0001)     ;
(PID.TID 0000.0001) rotationPeriod =   /* Rotation Period ( s ) */
(PID.TID 0000.0001)                 8.616400000000000E+04
(PID.TID 0000.0001)     ;
(PID.TID 0000.0001) omega =   /* Angular velocity ( rad/s ) */
(PID.TID 0000.0001)                 7.292123516990375E-05
(PID.TID 0000.0001)     ;
(PID.TID 0000.0001) f0 =   /* Reference coriolis parameter ( 1/s ) */
(PID.TID 0000.0001)                 1.000000000000000E-04
(PID.TID 0000.0001)     ;
(PID.TID 0000.0001) beta =   /* Beta ( 1/(m.s) ) */
(PID.TID 0000.0001)                 9.999999999999999E-12
(PID.TID 0000.0001)     ;
(PID.TID 0000.0001) fPrime =   /* Second coriolis parameter ( 1/s ) */
(PID.TID 0000.0001)                 0.000000000000000E+00
(PID.TID 0000.0001)     ;
(PID.TID 0000.0001) rigidLid =   /* Rigid lid on/off flag */
(PID.TID 0000.0001)                   F
(PID.TID 0000.0001)     ;
(PID.TID 0000.0001) implicitFreeSurface =   /* Implicit free surface on/off flag */
(PID.TID 0000.0001)                   T
(PID.TID 0000.0001)     ;
(PID.TID 0000.0001) freeSurfFac =   /* Implicit free surface factor */
(PID.TID 0000.0001)                 1.000000000000000E+00
(PID.TID 0000.0001)     ;
(PID.TID 0000.0001) implicSurfPress =  /* Surface Pressure implicit factor (0-1)*/
(PID.TID 0000.0001)                 1.000000000000000E+00
(PID.TID 0000.0001)     ;
(PID.TID 0000.0001) implicDiv2Dflow =  /* Barot. Flow Div. implicit factor (0-1)*/
(PID.TID 0000.0001)                 1.000000000000000E+00
(PID.TID 0000.0001)     ;
(PID.TID 0000.0001) uniformLin_PhiSurf = /* use uniform Bo_surf on/off flag*/
(PID.TID 0000.0001)                   T
(PID.TID 0000.0001)     ;
(PID.TID 0000.0001) uniformFreeSurfLev = /* free-surface level-index is uniform */
(PID.TID 0000.0001)                   T
(PID.TID 0000.0001)     ;
(PID.TID 0000.0001) hFacMin =   /* minimum partial cell factor (hFac) */
(PID.TID 0000.0001)                 1.000000000000000E+00
(PID.TID 0000.0001)     ;
(PID.TID 0000.0001) hFacMinDr = /* minimum partial cell thickness ( m) */
(PID.TID 0000.0001)                 1.000000000000000E+00
(PID.TID 0000.0001)     ;
(PID.TID 0000.0001) exactConserv =  /* Exact Volume Conservation on/off flag*/
(PID.TID 0000.0001)                   F
(PID.TID 0000.0001)     ;
(PID.TID 0000.0001) linFSConserveTr = /* Tracer correction for Lin Free Surface on/off flag*/
(PID.TID 0000.0001)                   F
(PID.TID 0000.0001)     ;
(PID.TID 0000.0001) nonlinFreeSurf = /* Non-linear Free Surf. options (-1,0,1,2,3)*/
(PID.TID 0000.0001)                       0
(PID.TID 0000.0001)      -1,0= Off ; 1,2,3= On, 2=+rescale gU,gV, 3=+update cg2d solv.
(PID.TID 0000.0001)     ;
(PID.TID 0000.0001) hFacInf =   /* lower threshold for hFac (nonlinFreeSurf only)*/
(PID.TID 0000.0001)                 2.000000000000000E-01
(PID.TID 0000.0001)     ;
(PID.TID 0000.0001) hFacSup =   /* upper threshold for hFac (nonlinFreeSurf only)*/
(PID.TID 0000.0001)                 2.000000000000000E+00
(PID.TID 0000.0001)     ;
(PID.TID 0000.0001) select_rStar = /* r* Vertical coord. options (=0 r coord.; >0 uses r*)*/
(PID.TID 0000.0001)                       0
(PID.TID 0000.0001)     ;
(PID.TID 0000.0001) useRealFreshWaterFlux = /* Real Fresh Water Flux on/off flag*/
(PID.TID 0000.0001)                   F
(PID.TID 0000.0001)     ;
(PID.TID 0000.0001) temp_EvPrRn = /* Temp. of Evap/Prec/R (UNSET=use local T)(oC)*/
(PID.TID 0000.0001)                 1.234567000000000E+05
(PID.TID 0000.0001)     ;
(PID.TID 0000.0001) salt_EvPrRn = /* Salin. of Evap/Prec/R (UNSET=use local S)(psu)*/
(PID.TID 0000.0001)                 0.000000000000000E+00
(PID.TID 0000.0001)     ;
(PID.TID 0000.0001) selectAddFluid = /* option for mass source/sink of fluid (=0: off) */
(PID.TID 0000.0001)                       0
(PID.TID 0000.0001)     ;
(PID.TID 0000.0001) temp_addMass = /* Temp. of addMass array (UNSET=use local T)(oC)*/
(PID.TID 0000.0001)                 1.234567000000000E+05
(PID.TID 0000.0001)     ;
(PID.TID 0000.0001) salt_addMass = /* Salin. of addMass array (UNSET=use local S)(psu)*/
(PID.TID 0000.0001)                 0.000000000000000E+00
(PID.TID 0000.0001)     ;
(PID.TID 0000.0001) convertFW2Salt = /* convert F.W. Flux to Salt Flux (-1=use local S)(psu)*/
(PID.TID 0000.0001)                 3.500000000000000E+01
(PID.TID 0000.0001)     ;
(PID.TID 0000.0001) use3Dsolver = /* use 3-D pressure solver on/off flag */
(PID.TID 0000.0001)                   F
(PID.TID 0000.0001)     ;
(PID.TID 0000.0001) nonHydrostatic =  /* Non-Hydrostatic on/off flag */
(PID.TID 0000.0001)                   F
(PID.TID 0000.0001)     ;
(PID.TID 0000.0001) nh_Am2 = /* Non-Hydrostatic terms scaling factor */
(PID.TID 0000.0001)                 1.000000000000000E+00
(PID.TID 0000.0001)     ;
(PID.TID 0000.0001) implicitNHPress = /* Non-Hyd Pressure implicit factor (0-1)*/
(PID.TID 0000.0001)                 1.000000000000000E+00
(PID.TID 0000.0001)     ;
(PID.TID 0000.0001) selectNHfreeSurf = /* Non-Hyd (free-)Surface option */
(PID.TID 0000.0001)                       0
(PID.TID 0000.0001)     ;
(PID.TID 0000.0001) quasiHydrostatic = /* Quasi-Hydrostatic on/off flag */
(PID.TID 0000.0001)                   F
(PID.TID 0000.0001)     ;
(PID.TID 0000.0001) calc_wVelocity = /* vertical velocity calculation on/off flag */
(PID.TID 0000.0001)                   T
(PID.TID 0000.0001)     ;
(PID.TID 0000.0001) momStepping =  /* Momentum equation on/off flag */
(PID.TID 0000.0001)                   T
(PID.TID 0000.0001)     ;
(PID.TID 0000.0001) vectorInvariantMomentum= /* Vector-Invariant Momentum on/off */
(PID.TID 0000.0001)                   F
(PID.TID 0000.0001)     ;
(PID.TID 0000.0001) momAdvection =  /* Momentum advection on/off flag */
(PID.TID 0000.0001)                   T
(PID.TID 0000.0001)     ;
(PID.TID 0000.0001) momViscosity =  /* Momentum viscosity on/off flag */
(PID.TID 0000.0001)                   T
(PID.TID 0000.0001)     ;
(PID.TID 0000.0001) momImplVertAdv= /* Momentum implicit vert. advection on/off*/
(PID.TID 0000.0001)                   F
(PID.TID 0000.0001)     ;
(PID.TID 0000.0001) implicitViscosity = /* Implicit viscosity on/off flag */
(PID.TID 0000.0001)                   T
(PID.TID 0000.0001)     ;
(PID.TID 0000.0001) metricTerms =  /* metric-Terms on/off flag */
(PID.TID 0000.0001)                   T
(PID.TID 0000.0001)     ;
(PID.TID 0000.0001) useNHMTerms = /* Non-Hydrostatic Metric-Terms on/off */
(PID.TID 0000.0001)                   F
(PID.TID 0000.0001)     ;
(PID.TID 0000.0001) selectCoriMap = /* Coriolis Map options (0,1,2,3)*/
(PID.TID 0000.0001)                       2
(PID.TID 0000.0001)     0= f-Plane ; 1= Beta-Plane ; 2= Spherical ; 3= read from file
(PID.TID 0000.0001)     ;
(PID.TID 0000.0001) use3dCoriolis = /* 3-D Coriolis on/off flag */
(PID.TID 0000.0001)                   F
(PID.TID 0000.0001)     ;
(PID.TID 0000.0001) useCoriolis =  /* Coriolis on/off flag */
(PID.TID 0000.0001)                   T
(PID.TID 0000.0001)     ;
(PID.TID 0000.0001) useCDscheme =  /* CD scheme on/off flag */
(PID.TID 0000.0001)                   T
(PID.TID 0000.0001)     ;
(PID.TID 0000.0001) useEnergyConservingCoriolis= /* Flx-Form Coriolis scheme flag */
(PID.TID 0000.0001)                   F
(PID.TID 0000.0001)     ;
(PID.TID 0000.0001) useJamartWetPoints= /* Coriolis WetPoints method flag */
(PID.TID 0000.0001)                   F
(PID.TID 0000.0001)     ;
(PID.TID 0000.0001) useJamartMomAdv= /* V.I Non-linear terms Jamart flag */
(PID.TID 0000.0001)                   F
(PID.TID 0000.0001)     ;
(PID.TID 0000.0001) useAbsVorticity= /* V.I Works with f+zeta in Coriolis */
(PID.TID 0000.0001)                   F
(PID.TID 0000.0001)     ;
(PID.TID 0000.0001) selectVortScheme= /* V.I Scheme selector for Vorticity-Term */
(PID.TID 0000.0001)               123456789
(PID.TID 0000.0001)    = 0 : enstrophy (Shallow-Water Eq.) conserving scheme by Sadourny, JAS 75
(PID.TID 0000.0001)    = 1 : same as 0 with modified hFac
(PID.TID 0000.0001)    = 2 : energy conserving scheme (used by Sadourny in JAS 75 paper)
(PID.TID 0000.0001)    = 3 : energy (general) and enstrophy (2D, nonDiv.) conserving scheme
(PID.TID 0000.0001)          from Sadourny (Burridge & Haseler, ECMWF Rep.4, 1977)
(PID.TID 0000.0001)     ;
(PID.TID 0000.0001) upwindVorticity= /* V.I Upwind bias vorticity flag */
(PID.TID 0000.0001)                   F
(PID.TID 0000.0001)     ;
(PID.TID 0000.0001) highOrderVorticity= /* V.I High order vort. advect. flag */
(PID.TID 0000.0001)                   F
(PID.TID 0000.0001)     ;
(PID.TID 0000.0001) upwindShear= /* V.I Upwind vertical Shear advection flag */
(PID.TID 0000.0001)                   F
(PID.TID 0000.0001)     ;
(PID.TID 0000.0001) selectKEscheme= /* V.I Kinetic Energy scheme selector */
(PID.TID 0000.0001)                       0
(PID.TID 0000.0001)     ;
(PID.TID 0000.0001) momForcing =  /* Momentum forcing on/off flag */
(PID.TID 0000.0001)                   T
(PID.TID 0000.0001)     ;
(PID.TID 0000.0001) momPressureForcing =  /* Momentum pressure term on/off flag */
(PID.TID 0000.0001)                   T
(PID.TID 0000.0001)     ;
(PID.TID 0000.0001) implicitIntGravWave= /* Implicit Internal Gravity Wave flag */
(PID.TID 0000.0001)                   F
(PID.TID 0000.0001)     ;
(PID.TID 0000.0001) staggerTimeStep =    /* Stagger time stepping on/off flag */
(PID.TID 0000.0001)                   F
(PID.TID 0000.0001)     ;
(PID.TID 0000.0001) doResetHFactors = /* reset thickness factors @ each time-step */
(PID.TID 0000.0001)                   F
(PID.TID 0000.0001)     ;
(PID.TID 0000.0001) multiDimAdvection =  /* enable/disable Multi-Dim Advection */
(PID.TID 0000.0001)                   F
(PID.TID 0000.0001)     ;
(PID.TID 0000.0001) useMultiDimAdvec =   /* Multi-Dim Advection is/is-not used */
(PID.TID 0000.0001)                   F
(PID.TID 0000.0001)     ;
(PID.TID 0000.0001) implicitDiffusion = /* Implicit Diffusion on/off flag */
(PID.TID 0000.0001)                   T
(PID.TID 0000.0001)     ;
(PID.TID 0000.0001) tempStepping =  /* Temperature equation on/off flag */
(PID.TID 0000.0001)                   T
(PID.TID 0000.0001)     ;
(PID.TID 0000.0001) tempAdvection = /* Temperature advection on/off flag */
(PID.TID 0000.0001)                   T
(PID.TID 0000.0001)     ;
(PID.TID 0000.0001) tempImplVertAdv = /* Temp. implicit vert. advection on/off */
(PID.TID 0000.0001)                   F
(PID.TID 0000.0001)     ;
(PID.TID 0000.0001) tempForcing  =  /* Temperature forcing on/off flag */
(PID.TID 0000.0001)                   T
(PID.TID 0000.0001)     ;
(PID.TID 0000.0001) doThetaClimRelax = /* apply SST relaxation on/off flag */
(PID.TID 0000.0001)                   T
(PID.TID 0000.0001)     ;
(PID.TID 0000.0001) tempIsActiveTr = /* Temp. is a dynamically Active Tracer */
(PID.TID 0000.0001)                   T
(PID.TID 0000.0001)     ;
(PID.TID 0000.0001) saltStepping =  /* Salinity equation on/off flag */
(PID.TID 0000.0001)                   T
(PID.TID 0000.0001)     ;
(PID.TID 0000.0001) saltAdvection = /* Salinity advection on/off flag */
(PID.TID 0000.0001)                   T
(PID.TID 0000.0001)     ;
(PID.TID 0000.0001) saltImplVertAdv = /* Sali. implicit vert. advection on/off */
(PID.TID 0000.0001)                   F
(PID.TID 0000.0001)     ;
(PID.TID 0000.0001) saltForcing  =  /* Salinity forcing on/off flag */
(PID.TID 0000.0001)                   T
(PID.TID 0000.0001)     ;
(PID.TID 0000.0001) doSaltClimRelax = /* apply SSS relaxation on/off flag */
(PID.TID 0000.0001)                   T
(PID.TID 0000.0001)     ;
(PID.TID 0000.0001) saltIsActiveTr = /* Salt  is a dynamically Active Tracer */
(PID.TID 0000.0001)                   T
(PID.TID 0000.0001)     ;
(PID.TID 0000.0001)  readBinaryPrec = /* Precision used for reading binary files */
(PID.TID 0000.0001)                      32
(PID.TID 0000.0001)     ;
(PID.TID 0000.0001) writeBinaryPrec = /* Precision used for writing binary files */
(PID.TID 0000.0001)                      64
(PID.TID 0000.0001)     ;
(PID.TID 0000.0001)  globalFiles = /* write "global" (=not per tile) files */
(PID.TID 0000.0001)                   F
(PID.TID 0000.0001)     ;
(PID.TID 0000.0001)  useSingleCpuIO = /* only master MPI process does I/O */
(PID.TID 0000.0001)                   F
(PID.TID 0000.0001)     ;
(PID.TID 0000.0001) /* debLev[*]  : level of debug & auxiliary message printing */
(PID.TID 0000.0001) debLevZero =  0 ; /* level of disabled aux. msg printing */
(PID.TID 0000.0001)    debLevA =  1 ; /* level of minimum  aux. msg printing */
(PID.TID 0000.0001)    debLevB =  2 ; /* level of low aux. print (report read-file opening)*/
(PID.TID 0000.0001)    debLevC =  3 ; /* level of moderate debug prt (most pkgs debug msg) */
(PID.TID 0000.0001)    debLevD =  4 ; /* level of enhanced debug prt (add DEBUG_STATS prt) */
(PID.TID 0000.0001)    debLevE =  5 ; /* level of extensive debug printing */
(PID.TID 0000.0001) debugLevel =  /* select debug printing level */
(PID.TID 0000.0001)                       2
(PID.TID 0000.0001)     ;
(PID.TID 0000.0001) //
(PID.TID 0000.0001) // Elliptic solver(s) paramters ( PARM02 in namelist )
(PID.TID 0000.0001) //
(PID.TID 0000.0001) cg2dMaxIters =   /* Upper limit on 2d con. grad iterations  */
(PID.TID 0000.0001)                    1000
(PID.TID 0000.0001)     ;
(PID.TID 0000.0001) cg2dChkResFreq =   /* 2d con. grad convergence test frequency */
(PID.TID 0000.0001)                       1
(PID.TID 0000.0001)     ;
(PID.TID 0000.0001) cg2dUseMinResSol= /* use cg2d last-iter(=0) / min-resid.(=1) solution */
(PID.TID 0000.0001)                       0
(PID.TID 0000.0001)     ;
(PID.TID 0000.0001) cg2dTargetResidual =   /* 2d con. grad target residual  */
(PID.TID 0000.0001)                 1.000000000000000E-13
(PID.TID 0000.0001)     ;
(PID.TID 0000.0001) cg2dTargetResWunit =   /* CG2d target residual [W units] */
(PID.TID 0000.0001)                -1.000000000000000E+00
(PID.TID 0000.0001)     ;
(PID.TID 0000.0001) cg2dPreCondFreq =   /* Freq. for updating cg2d preconditioner */
(PID.TID 0000.0001)                       1
(PID.TID 0000.0001)     ;
(PID.TID 0000.0001) useSRCGSolver =  /* use single reduction CG solver(s) */
(PID.TID 0000.0001)                   F
(PID.TID 0000.0001)     ;
(PID.TID 0000.0001) printResidualFreq = /* Freq. for printing CG residual */
(PID.TID 0000.0001)                       0
(PID.TID 0000.0001)     ;
(PID.TID 0000.0001) //
(PID.TID 0000.0001) // Time stepping paramters ( PARM03 in namelist )
(PID.TID 0000.0001) //
(PID.TID 0000.0001) deltaTMom =   /* Momentum equation timestep ( s ) */
(PID.TID 0000.0001)                 9.000000000000000E+02
(PID.TID 0000.0001)     ;
(PID.TID 0000.0001) deltaTFreeSurf = /* FreeSurface equation timestep ( s ) */
(PID.TID 0000.0001)                 9.000000000000000E+02
(PID.TID 0000.0001)     ;
(PID.TID 0000.0001) dTtracerLev =  /* Tracer equation timestep ( s ) */
(PID.TID 0000.0001)    15 @  4.320000000000000E+04              /* K =  1: 15 */
(PID.TID 0000.0001)     ;
(PID.TID 0000.0001) deltaTClock  =   /* Model clock timestep ( s ) */
(PID.TID 0000.0001)                 4.320000000000000E+04
(PID.TID 0000.0001)     ;
(PID.TID 0000.0001) cAdjFreq =   /* Convective adjustment interval ( s ) */
(PID.TID 0000.0001)                 0.000000000000000E+00
(PID.TID 0000.0001)     ;
(PID.TID 0000.0001) momForcingOutAB = /* =1: take Momentum Forcing out of Adams-Bash. stepping */
(PID.TID 0000.0001)                       0
(PID.TID 0000.0001)     ;
(PID.TID 0000.0001) tracForcingOutAB = /* =1: take T,S,pTr Forcing out of Adams-Bash. stepping */
(PID.TID 0000.0001)                       0
(PID.TID 0000.0001)     ;
(PID.TID 0000.0001) momDissip_In_AB = /* put Dissipation Tendency in Adams-Bash. stepping */
(PID.TID 0000.0001)                   T
(PID.TID 0000.0001)     ;
(PID.TID 0000.0001) doAB_onGtGs = /* apply AB on Tendencies (rather than on T,S)*/
(PID.TID 0000.0001)                   T
(PID.TID 0000.0001)     ;
(PID.TID 0000.0001) abEps =   /* Adams-Bashforth-2 stabilizing weight */
(PID.TID 0000.0001)                 1.000000000000000E-01
(PID.TID 0000.0001)     ;
(PID.TID 0000.0001) tauCD =   /* CD coupling time-scale ( s ) */
(PID.TID 0000.0001)                 3.214280000000000E+05
(PID.TID 0000.0001)     ;
(PID.TID 0000.0001) rCD =   /* Normalised CD coupling parameter */
(PID.TID 0000.0001)                 9.971999950222133E-01
(PID.TID 0000.0001)     ;
(PID.TID 0000.0001) epsAB_CD = /* AB-2 stabilizing weight for CD-scheme*/
(PID.TID 0000.0001)                 1.000000000000000E-01
(PID.TID 0000.0001)     ;
(PID.TID 0000.0001) pickupStrictlyMatch= /* stop if pickup do not strictly match */
(PID.TID 0000.0001)                   F
(PID.TID 0000.0001)     ;
(PID.TID 0000.0001) nIter0   =   /* Run starting timestep number */
(PID.TID 0000.0001)                 5644800
(PID.TID 0000.0001)     ;
(PID.TID 0000.0001) nTimeSteps = /* Number of timesteps */
(PID.TID 0000.0001)                       4
(PID.TID 0000.0001)     ;
(PID.TID 0000.0001) nEndIter =   /* Run ending timestep number */
(PID.TID 0000.0001)                 5644804
(PID.TID 0000.0001)     ;
(PID.TID 0000.0001) baseTime =   /* Model base time ( s ) */
(PID.TID 0000.0001)                 0.000000000000000E+00
(PID.TID 0000.0001)     ;
(PID.TID 0000.0001) startTime =  /* Run start time ( s ) */
(PID.TID 0000.0001)                 2.438553600000000E+11
(PID.TID 0000.0001)     ;
(PID.TID 0000.0001) endTime  =   /* Integration ending time ( s ) */
(PID.TID 0000.0001)                 2.438555328000000E+11
(PID.TID 0000.0001)     ;
(PID.TID 0000.0001) pChkPtFreq = /* Permanent restart/pickup file interval ( s ) */
(PID.TID 0000.0001)                 3.110400000000000E+08
(PID.TID 0000.0001)     ;
(PID.TID 0000.0001) chkPtFreq  = /* Rolling restart/pickup file interval ( s ) */
(PID.TID 0000.0001)                 3.110400000000000E+08
(PID.TID 0000.0001)     ;
(PID.TID 0000.0001) pickup_write_mdsio =   /* Model IO flag. */
(PID.TID 0000.0001)                   T
(PID.TID 0000.0001)     ;
(PID.TID 0000.0001) pickup_read_mdsio =   /* Model IO flag. */
(PID.TID 0000.0001)                   T
(PID.TID 0000.0001)     ;
(PID.TID 0000.0001) pickup_write_mnc =   /* Model IO flag. */
(PID.TID 0000.0001)                   F
(PID.TID 0000.0001)     ;
(PID.TID 0000.0001) pickup_read_mnc =   /* Model IO flag. */
(PID.TID 0000.0001)                   F
(PID.TID 0000.0001)     ;
(PID.TID 0000.0001) pickup_write_immed =   /* Model IO flag. */
(PID.TID 0000.0001)                   F
(PID.TID 0000.0001)     ;
(PID.TID 0000.0001) writePickupAtEnd =   /* Model IO flag. */
(PID.TID 0000.0001)                   T
(PID.TID 0000.0001)     ;
(PID.TID 0000.0001) dumpFreq =   /* Model state write out interval ( s ). */
(PID.TID 0000.0001)                 3.110400000000000E+07
(PID.TID 0000.0001)     ;
(PID.TID 0000.0001) dumpInitAndLast= /* write out Initial & Last iter. model state */
(PID.TID 0000.0001)                   T
(PID.TID 0000.0001)     ;
(PID.TID 0000.0001) snapshot_mdsio =   /* Model IO flag. */
(PID.TID 0000.0001)                   F
(PID.TID 0000.0001)     ;
(PID.TID 0000.0001) snapshot_mnc =   /* Model IO flag. */
(PID.TID 0000.0001)                   T
(PID.TID 0000.0001)     ;
(PID.TID 0000.0001) monitorFreq =   /* Monitor output interval ( s ). */
(PID.TID 0000.0001)                 4.320000000000000E+04
(PID.TID 0000.0001)     ;
(PID.TID 0000.0001) monitorSelect = /* select group of variables to monitor */
(PID.TID 0000.0001)                       3
(PID.TID 0000.0001)     ;
(PID.TID 0000.0001) monitor_stdio =   /* Model IO flag. */
(PID.TID 0000.0001)                   T
(PID.TID 0000.0001)     ;
(PID.TID 0000.0001) monitor_mnc =   /* Model IO flag. */
(PID.TID 0000.0001)                   F
(PID.TID 0000.0001)     ;
(PID.TID 0000.0001) externForcingPeriod =   /* forcing period (s) */
(PID.TID 0000.0001)                 2.592000000000000E+06
(PID.TID 0000.0001)     ;
(PID.TID 0000.0001) externForcingCycle =   /* period of the cyle (s). */
(PID.TID 0000.0001)                 3.110400000000000E+07
(PID.TID 0000.0001)     ;
(PID.TID 0000.0001) tauThetaClimRelax =   /* relaxation time scale (s) */
(PID.TID 0000.0001)                 5.184000000000000E+06
(PID.TID 0000.0001)     ;
(PID.TID 0000.0001) tauSaltClimRelax =   /* relaxation time scale (s) */
(PID.TID 0000.0001)                 7.776000000000000E+06
(PID.TID 0000.0001)     ;
(PID.TID 0000.0001) latBandClimRelax =   /* max. Lat. where relaxation */
(PID.TID 0000.0001)                 1.800000000000000E+02
(PID.TID 0000.0001)     ;
(PID.TID 0000.0001) //
(PID.TID 0000.0001) // Gridding paramters ( PARM04 in namelist )
(PID.TID 0000.0001) //
(PID.TID 0000.0001) usingCartesianGrid = /* Cartesian coordinates flag ( True/False ) */
(PID.TID 0000.0001)                   F
(PID.TID 0000.0001)     ;
(PID.TID 0000.0001) usingCylindricalGrid = /* Cylindrical coordinates flag ( True/False ) */
(PID.TID 0000.0001)                   F
(PID.TID 0000.0001)     ;
(PID.TID 0000.0001) usingSphericalPolarGrid = /* Spherical coordinates flag ( True/False ) */
(PID.TID 0000.0001)                   T
(PID.TID 0000.0001)     ;
(PID.TID 0000.0001) usingCurvilinearGrid = /* Curvilinear coordinates flag ( True/False ) */
(PID.TID 0000.0001)                   F
(PID.TID 0000.0001)     ;
(PID.TID 0000.0001) selectSigmaCoord = /* Hybrid-Sigma Vert. Coordinate option */
(PID.TID 0000.0001)                       0
(PID.TID 0000.0001)     ;
(PID.TID 0000.0001) Ro_SeaLevel = /* r(1) ( units of r ==  m ) */
(PID.TID 0000.0001)                 0.000000000000000E+00
(PID.TID 0000.0001)     ;
(PID.TID 0000.0001) rSigmaBnd = /* r/sigma transition ( units of r ==  m ) */
(PID.TID 0000.0001)                 1.234567000000000E+05
(PID.TID 0000.0001)     ;
(PID.TID 0000.0001) rkSign =   /* index orientation relative to vertical coordinate */
(PID.TID 0000.0001)                -1.000000000000000E+00
(PID.TID 0000.0001)     ;
(PID.TID 0000.0001) gravitySign = /* gravity orientation relative to vertical coordinate */
(PID.TID 0000.0001)                -1.000000000000000E+00
(PID.TID 0000.0001)     ;
(PID.TID 0000.0001) mass2rUnit = /* convert mass per unit area [kg/m2] to r-units [m] */
(PID.TID 0000.0001)                 9.661835748792270E-04
(PID.TID 0000.0001)     ;
(PID.TID 0000.0001) rUnit2mass = /* convert r-units [m] to mass per unit area [kg/m2] */
(PID.TID 0000.0001)                 1.035000000000000E+03
(PID.TID 0000.0001)     ;
(PID.TID 0000.0001) drC =   /* C spacing ( units of r ) */
(PID.TID 0000.0001)                 2.500000000000000E+01,      /* K =  1 */
(PID.TID 0000.0001)                 6.000000000000000E+01,      /* K =  2 */
(PID.TID 0000.0001)                 8.500000000000000E+01,      /* K =  3 */
(PID.TID 0000.0001)                 1.200000000000000E+02,      /* K =  4 */
(PID.TID 0000.0001)                 1.650000000000000E+02,      /* K =  5 */
(PID.TID 0000.0001)                 2.150000000000000E+02,      /* K =  6 */
(PID.TID 0000.0001)                 2.650000000000000E+02,      /* K =  7 */
(PID.TID 0000.0001)                 3.150000000000000E+02,      /* K =  8 */
(PID.TID 0000.0001)                 3.650000000000000E+02,      /* K =  9 */
(PID.TID 0000.0001)                 4.150000000000000E+02,      /* K = 10 */
(PID.TID 0000.0001)                 4.650000000000000E+02,      /* K = 11 */
(PID.TID 0000.0001)                 5.150000000000000E+02,      /* K = 12 */
(PID.TID 0000.0001)                 5.650000000000000E+02,      /* K = 13 */
(PID.TID 0000.0001)                 6.150000000000000E+02,      /* K = 14 */
(PID.TID 0000.0001)                 6.650000000000000E+02       /* K = 15 */
(PID.TID 0000.0001)     ;
(PID.TID 0000.0001) drF =   /* W spacing ( units of r ) */
(PID.TID 0000.0001)                 5.000000000000000E+01,      /* K =  1 */
(PID.TID 0000.0001)                 7.000000000000000E+01,      /* K =  2 */
(PID.TID 0000.0001)                 1.000000000000000E+02,      /* K =  3 */
(PID.TID 0000.0001)                 1.400000000000000E+02,      /* K =  4 */
(PID.TID 0000.0001)                 1.900000000000000E+02,      /* K =  5 */
(PID.TID 0000.0001)                 2.400000000000000E+02,      /* K =  6 */
(PID.TID 0000.0001)                 2.900000000000000E+02,      /* K =  7 */
(PID.TID 0000.0001)                 3.400000000000000E+02,      /* K =  8 */
(PID.TID 0000.0001)                 3.900000000000000E+02,      /* K =  9 */
(PID.TID 0000.0001)                 4.400000000000000E+02,      /* K = 10 */
(PID.TID 0000.0001)                 4.900000000000000E+02,      /* K = 11 */
(PID.TID 0000.0001)                 5.400000000000000E+02,      /* K = 12 */
(PID.TID 0000.0001)                 5.900000000000000E+02,      /* K = 13 */
(PID.TID 0000.0001)                 6.400000000000000E+02,      /* K = 14 */
(PID.TID 0000.0001)                 6.900000000000000E+02       /* K = 15 */
(PID.TID 0000.0001)     ;
(PID.TID 0000.0001) delX = /* U spacing ( m - cartesian, degrees - spherical ) */
(PID.TID 0000.0001)   128 @  2.812500000000000E+00              /* I =  1:128 */
(PID.TID 0000.0001)     ;
(PID.TID 0000.0001) delY = /* V spacing ( m - cartesian, degrees - spherical ) */
(PID.TID 0000.0001)    64 @  2.812500000000000E+00              /* J =  1: 64 */
(PID.TID 0000.0001)     ;
(PID.TID 0000.0001) xgOrigin = /* X-axis origin of West  edge (cartesian: m, lat-lon: deg) */
(PID.TID 0000.0001)                 0.000000000000000E+00
(PID.TID 0000.0001)     ;
(PID.TID 0000.0001) ygOrigin = /* Y-axis origin of South edge (cartesian: m, lat-lon: deg) */
(PID.TID 0000.0001)                -9.000000000000000E+01
(PID.TID 0000.0001)     ;
(PID.TID 0000.0001) rSphere =  /* Radius ( ignored - cartesian, m - spherical ) */
(PID.TID 0000.0001)                 6.370000000000000E+06
(PID.TID 0000.0001)     ;
(PID.TID 0000.0001) deepAtmosphere = /* Deep/Shallow Atmosphere flag (True/False) */
(PID.TID 0000.0001)                   F
(PID.TID 0000.0001)     ;
(PID.TID 0000.0001) xC =  /* xC(:,1,:,1) : P-point X coord ( deg. or m if cartesian) */
(PID.TID 0000.0001)                 1.406250000000000E+00,      /* I =  1 */
(PID.TID 0000.0001)                 4.218750000000000E+00,      /* I =  2 */
(PID.TID 0000.0001)                 7.031250000000000E+00,      /* I =  3 */
(PID.TID 0000.0001)      . . .
(PID.TID 0000.0001)                 8.296875000000000E+01,      /* I = 30 */
(PID.TID 0000.0001)                 8.578125000000000E+01,      /* I = 31 */
(PID.TID 0000.0001)                 8.859375000000000E+01,      /* I = 32 */
(PID.TID 0000.0001)                 9.140625000000000E+01,      /* I = 33 */
(PID.TID 0000.0001)                 9.421875000000000E+01,      /* I = 34 */
(PID.TID 0000.0001)                 9.703125000000000E+01,      /* I = 35 */
(PID.TID 0000.0001)      . . .
(PID.TID 0000.0001)                 1.729687500000000E+02,      /* I = 62 */
(PID.TID 0000.0001)                 1.757812500000000E+02,      /* I = 63 */
(PID.TID 0000.0001)                 1.785937500000000E+02,      /* I = 64 */
(PID.TID 0000.0001)                 1.814062500000000E+02,      /* I = 65 */
(PID.TID 0000.0001)                 1.842187500000000E+02,      /* I = 66 */
(PID.TID 0000.0001)                 1.870312500000000E+02,      /* I = 67 */
(PID.TID 0000.0001)      . . .
(PID.TID 0000.0001)                 2.629687500000000E+02,      /* I = 94 */
(PID.TID 0000.0001)                 2.657812500000000E+02,      /* I = 95 */
(PID.TID 0000.0001)                 2.685937500000000E+02,      /* I = 96 */
(PID.TID 0000.0001)                 2.714062500000000E+02,      /* I = 97 */
(PID.TID 0000.0001)                 2.742187500000000E+02,      /* I = 98 */
(PID.TID 0000.0001)                 2.770312500000000E+02,      /* I = 99 */
(PID.TID 0000.0001)      . . .
(PID.TID 0000.0001)                 3.529687500000000E+02,      /* I =126 */
(PID.TID 0000.0001)                 3.557812500000000E+02,      /* I =127 */
(PID.TID 0000.0001)                 3.585937500000000E+02       /* I =128 */
(PID.TID 0000.0001)     ;
(PID.TID 0000.0001) yC =  /* yC(1,:,1,:) : P-point Y coord ( deg. or m if cartesian) */
(PID.TID 0000.0001)                -8.859375000000000E+01,      /* J =  1 */
(PID.TID 0000.0001)                -8.578125000000000E+01,      /* J =  2 */
(PID.TID 0000.0001)                -8.296875000000000E+01,      /* J =  3 */
(PID.TID 0000.0001)                -8.015625000000000E+01,      /* J =  4 */
(PID.TID 0000.0001)                -7.734375000000000E+01,      /* J =  5 */
(PID.TID 0000.0001)                -7.453125000000000E+01,      /* J =  6 */
(PID.TID 0000.0001)                -7.171875000000000E+01,      /* J =  7 */
(PID.TID 0000.0001)                -6.890625000000000E+01,      /* J =  8 */
(PID.TID 0000.0001)                -6.609375000000000E+01,      /* J =  9 */
(PID.TID 0000.0001)                -6.328125000000000E+01,      /* J = 10 */
(PID.TID 0000.0001)                -6.046875000000000E+01,      /* J = 11 */
(PID.TID 0000.0001)                -5.765625000000000E+01,      /* J = 12 */
(PID.TID 0000.0001)                -5.484375000000000E+01,      /* J = 13 */
(PID.TID 0000.0001)                -5.203125000000000E+01,      /* J = 14 */
(PID.TID 0000.0001)                -4.921875000000000E+01,      /* J = 15 */
(PID.TID 0000.0001)                -4.640625000000000E+01,      /* J = 16 */
(PID.TID 0000.0001)                -4.359375000000000E+01,      /* J = 17 */
(PID.TID 0000.0001)                -4.078125000000000E+01,      /* J = 18 */
(PID.TID 0000.0001)                -3.796875000000000E+01,      /* J = 19 */
(PID.TID 0000.0001)                -3.515625000000000E+01,      /* J = 20 */
(PID.TID 0000.0001)                -3.234375000000000E+01,      /* J = 21 */
(PID.TID 0000.0001)                -2.953125000000000E+01,      /* J = 22 */
(PID.TID 0000.0001)                -2.671875000000000E+01,      /* J = 23 */
(PID.TID 0000.0001)                -2.390625000000000E+01,      /* J = 24 */
(PID.TID 0000.0001)                -2.109375000000000E+01,      /* J = 25 */
(PID.TID 0000.0001)                -1.828125000000000E+01,      /* J = 26 */
(PID.TID 0000.0001)                -1.546875000000000E+01,      /* J = 27 */
(PID.TID 0000.0001)                -1.265625000000000E+01,      /* J = 28 */
(PID.TID 0000.0001)                -9.843750000000000E+00,      /* J = 29 */
(PID.TID 0000.0001)                -7.031250000000000E+00,      /* J = 30 */
(PID.TID 0000.0001)                -4.218750000000000E+00,      /* J = 31 */
(PID.TID 0000.0001)                -1.406250000000000E+00,      /* J = 32 */
(PID.TID 0000.0001)                 1.406250000000000E+00,      /* J = 33 */
(PID.TID 0000.0001)                 4.218750000000000E+00,      /* J = 34 */
(PID.TID 0000.0001)                 7.031250000000000E+00,      /* J = 35 */
(PID.TID 0000.0001)                 9.843750000000000E+00,      /* J = 36 */
(PID.TID 0000.0001)                 1.265625000000000E+01,      /* J = 37 */
(PID.TID 0000.0001)                 1.546875000000000E+01,      /* J = 38 */
(PID.TID 0000.0001)                 1.828125000000000E+01,      /* J = 39 */
(PID.TID 0000.0001)                 2.109375000000000E+01,      /* J = 40 */
(PID.TID 0000.0001)                 2.390625000000000E+01,      /* J = 41 */
(PID.TID 0000.0001)                 2.671875000000000E+01,      /* J = 42 */
(PID.TID 0000.0001)                 2.953125000000000E+01,      /* J = 43 */
(PID.TID 0000.0001)                 3.234375000000000E+01,      /* J = 44 */
(PID.TID 0000.0001)                 3.515625000000000E+01,      /* J = 45 */
(PID.TID 0000.0001)                 3.796875000000000E+01,      /* J = 46 */
(PID.TID 0000.0001)                 4.078125000000000E+01,      /* J = 47 */
(PID.TID 0000.0001)                 4.359375000000000E+01,      /* J = 48 */
(PID.TID 0000.0001)                 4.640625000000000E+01,      /* J = 49 */
(PID.TID 0000.0001)                 4.921875000000000E+01,      /* J = 50 */
(PID.TID 0000.0001)                 5.203125000000000E+01,      /* J = 51 */
(PID.TID 0000.0001)                 5.484375000000000E+01,      /* J = 52 */
(PID.TID 0000.0001)                 5.765625000000000E+01,      /* J = 53 */
(PID.TID 0000.0001)                 6.046875000000000E+01,      /* J = 54 */
(PID.TID 0000.0001)                 6.328125000000000E+01,      /* J = 55 */
(PID.TID 0000.0001)                 6.609375000000000E+01,      /* J = 56 */
(PID.TID 0000.0001)                 6.890625000000000E+01,      /* J = 57 */
(PID.TID 0000.0001)                 7.171875000000000E+01,      /* J = 58 */
(PID.TID 0000.0001)                 7.453125000000000E+01,      /* J = 59 */
(PID.TID 0000.0001)                 7.734375000000000E+01,      /* J = 60 */
(PID.TID 0000.0001)                 8.015625000000000E+01,      /* J = 61 */
(PID.TID 0000.0001)                 8.296875000000000E+01,      /* J = 62 */
(PID.TID 0000.0001)                 8.578125000000000E+01,      /* J = 63 */
(PID.TID 0000.0001)                 8.859375000000000E+01       /* J = 64 */
(PID.TID 0000.0001)     ;
(PID.TID 0000.0001) rcoord = /* P-point R coordinate (  units of r ) */
(PID.TID 0000.0001)                -2.500000000000000E+01,      /* K =  1 */
(PID.TID 0000.0001)                -8.500000000000000E+01,      /* K =  2 */
(PID.TID 0000.0001)                -1.700000000000000E+02,      /* K =  3 */
(PID.TID 0000.0001)                -2.900000000000000E+02,      /* K =  4 */
(PID.TID 0000.0001)                -4.550000000000000E+02,      /* K =  5 */
(PID.TID 0000.0001)                -6.700000000000000E+02,      /* K =  6 */
(PID.TID 0000.0001)                -9.350000000000000E+02,      /* K =  7 */
(PID.TID 0000.0001)                -1.250000000000000E+03,      /* K =  8 */
(PID.TID 0000.0001)                -1.615000000000000E+03,      /* K =  9 */
(PID.TID 0000.0001)                -2.030000000000000E+03,      /* K = 10 */
(PID.TID 0000.0001)                -2.495000000000000E+03,      /* K = 11 */
(PID.TID 0000.0001)                -3.010000000000000E+03,      /* K = 12 */
(PID.TID 0000.0001)                -3.575000000000000E+03,      /* K = 13 */
(PID.TID 0000.0001)                -4.190000000000000E+03,      /* K = 14 */
(PID.TID 0000.0001)                -4.855000000000000E+03       /* K = 15 */
(PID.TID 0000.0001)     ;
(PID.TID 0000.0001) rF =   /* W-Interf. R coordinate (  units of r ) */
(PID.TID 0000.0001)                 0.000000000000000E+00,      /* K =  1 */
(PID.TID 0000.0001)                -5.000000000000000E+01,      /* K =  2 */
(PID.TID 0000.0001)                -1.200000000000000E+02,      /* K =  3 */
(PID.TID 0000.0001)                -2.200000000000000E+02,      /* K =  4 */
(PID.TID 0000.0001)                -3.600000000000000E+02,      /* K =  5 */
(PID.TID 0000.0001)                -5.500000000000000E+02,      /* K =  6 */
(PID.TID 0000.0001)                -7.900000000000000E+02,      /* K =  7 */
(PID.TID 0000.0001)                -1.080000000000000E+03,      /* K =  8 */
(PID.TID 0000.0001)                -1.420000000000000E+03,      /* K =  9 */
(PID.TID 0000.0001)                -1.810000000000000E+03,      /* K = 10 */
(PID.TID 0000.0001)                -2.250000000000000E+03,      /* K = 11 */
(PID.TID 0000.0001)                -2.740000000000000E+03,      /* K = 12 */
(PID.TID 0000.0001)                -3.280000000000000E+03,      /* K = 13 */
(PID.TID 0000.0001)                -3.870000000000000E+03,      /* K = 14 */
(PID.TID 0000.0001)                -4.510000000000000E+03,      /* K = 15 */
(PID.TID 0000.0001)                -5.200000000000000E+03       /* K = 16 */
(PID.TID 0000.0001)     ;
(PID.TID 0000.0001) deepFacC = /* deep-model grid factor @ cell-Center (-) */
(PID.TID 0000.0001)    15 @  1.000000000000000E+00              /* K =  1: 15 */
(PID.TID 0000.0001)     ;
(PID.TID 0000.0001) deepFacF = /* deep-model grid factor @ W-Interface (-) */
(PID.TID 0000.0001)    16 @  1.000000000000000E+00              /* K =  1: 16 */
(PID.TID 0000.0001)     ;
(PID.TID 0000.0001) rVel2wUnit = /* convert units: rVel -> wSpeed (=1 if z-coord)*/
(PID.TID 0000.0001)    16 @  1.000000000000000E+00              /* K =  1: 16 */
(PID.TID 0000.0001)     ;
(PID.TID 0000.0001) wUnit2rVel = /* convert units: wSpeed -> rVel (=1 if z-coord)*/
(PID.TID 0000.0001)    16 @  1.000000000000000E+00              /* K =  1: 16 */
(PID.TID 0000.0001)     ;
(PID.TID 0000.0001) dBdrRef = /* Vertical grad. of reference buoyancy [(m/s/r)^2] */
(PID.TID 0000.0001)    15 @  0.000000000000000E+00              /* K =  1: 15 */
(PID.TID 0000.0001)     ;
(PID.TID 0000.0001) rotateGrid = /* use rotated grid ( True/False ) */
(PID.TID 0000.0001)                   F
(PID.TID 0000.0001)     ;
(PID.TID 0000.0001) phiEuler = /* Euler angle, rotation about original z-coordinate [rad] */
(PID.TID 0000.0001)                 0.000000000000000E+00
(PID.TID 0000.0001)     ;
(PID.TID 0000.0001) thetaEuler = /* Euler angle, rotation about new x-coordinate [rad] */
(PID.TID 0000.0001)                 0.000000000000000E+00
(PID.TID 0000.0001)     ;
(PID.TID 0000.0001) psiEuler = /* Euler angle, rotation about new z-coordinate [rad] */
(PID.TID 0000.0001)                 0.000000000000000E+00
(PID.TID 0000.0001)     ;
(PID.TID 0000.0001) dxF =  /* dxF(:,1,:,1) ( units: m ) */
(PID.TID 0000.0001)   128 @  7.673714381622299E+03              /* I =  1:128 */
(PID.TID 0000.0001)     ;
(PID.TID 0000.0001) dxF =  /* dxF(1,:,1,:) ( units: m ) */
(PID.TID 0000.0001)                 7.673714381622299E+03,      /* J =  1 */
(PID.TID 0000.0001)                 2.300265649478360E+04,      /* J =  2 */
(PID.TID 0000.0001)                 3.827618319365421E+04,      /* J =  3 */
(PID.TID 0000.0001)                 5.345749921461356E+04,      /* J =  4 */
(PID.TID 0000.0001)                 6.851003143764105E+04,      /* J =  5 */
(PID.TID 0000.0001)                 8.339751699416524E+04,      /* J =  6 */
(PID.TID 0000.0001)                 9.808409062749070E+04,      /* J =  7 */
(PID.TID 0000.0001)                 1.125343710953429E+05,      /* J =  8 */
(PID.TID 0000.0001)                 1.267135464063795E+05,      /* J =  9 */
(PID.TID 0000.0001)                 1.405874576853274E+05,      /* J = 10 */
(PID.TID 0000.0001)                 1.541226814647045E+05,      /* J = 11 */
(PID.TID 0000.0001)                 1.672866102048804E+05,      /* J = 12 */
(PID.TID 0000.0001)                 1.800475308484964E+05,      /* J = 13 */
(PID.TID 0000.0001)                 1.923747012199971E+05,      /* J = 14 */
(PID.TID 0000.0001)                 2.042384240862251E+05,      /* J = 15 */
(PID.TID 0000.0001)                 2.156101186996563E+05,      /* J = 16 */
(PID.TID 0000.0001)                 2.264623896519241E+05,      /* J = 17 */
(PID.TID 0000.0001)                 2.367690928717577E+05,      /* J = 18 */
(PID.TID 0000.0001)                 2.465053986083400E+05,      /* J = 19 */
(PID.TID 0000.0001)                 2.556478512483520E+05,      /* J = 20 */
(PID.TID 0000.0001)                 2.641744258225996E+05,      /* J = 21 */
(PID.TID 0000.0001)                 2.720645810660936E+05,      /* J = 22 */
(PID.TID 0000.0001)                 2.792993089037565E+05,      /* J = 23 */
(PID.TID 0000.0001)                 2.858611802425402E+05,      /* J = 24 */
(PID.TID 0000.0001)                 2.917343869596373E+05,      /* J = 25 */
(PID.TID 0000.0001)                 2.969047799856344E+05,      /* J = 26 */
(PID.TID 0000.0001)                 3.013599033908587E+05,      /* J = 27 */
(PID.TID 0000.0001)                 3.050890243928043E+05,      /* J = 28 */
(PID.TID 0000.0001)                 3.080831592123453E+05,      /* J = 29 */
(PID.TID 0000.0001)                 3.103350947164461E+05,      /* J = 30 */
(PID.TID 0000.0001)                 3.118394057952309E+05,      /* J = 31 */
(PID.TID 0000.0001)     2 @  3.125924684315491E+05,             /* J = 32: 33 */
(PID.TID 0000.0001)                 3.118394057952309E+05,      /* J = 34 */
(PID.TID 0000.0001)                 3.103350947164461E+05,      /* J = 35 */
(PID.TID 0000.0001)                 3.080831592123453E+05,      /* J = 36 */
(PID.TID 0000.0001)                 3.050890243928043E+05,      /* J = 37 */
(PID.TID 0000.0001)                 3.013599033908587E+05,      /* J = 38 */
(PID.TID 0000.0001)                 2.969047799856344E+05,      /* J = 39 */
(PID.TID 0000.0001)                 2.917343869596373E+05,      /* J = 40 */
(PID.TID 0000.0001)                 2.858611802425402E+05,      /* J = 41 */
(PID.TID 0000.0001)                 2.792993089037565E+05,      /* J = 42 */
(PID.TID 0000.0001)                 2.720645810660936E+05,      /* J = 43 */
(PID.TID 0000.0001)                 2.641744258225996E+05,      /* J = 44 */
(PID.TID 0000.0001)                 2.556478512483520E+05,      /* J = 45 */
(PID.TID 0000.0001)                 2.465053986083400E+05,      /* J = 46 */
(PID.TID 0000.0001)                 2.367690928717577E+05,      /* J = 47 */
(PID.TID 0000.0001)                 2.264623896519241E+05,      /* J = 48 */
(PID.TID 0000.0001)                 2.156101186996563E+05,      /* J = 49 */
(PID.TID 0000.0001)                 2.042384240862251E+05,      /* J = 50 */
(PID.TID 0000.0001)                 1.923747012199971E+05,      /* J = 51 */
(PID.TID 0000.0001)                 1.800475308484964E+05,      /* J = 52 */
(PID.TID 0000.0001)                 1.672866102048804E+05,      /* J = 53 */
(PID.TID 0000.0001)                 1.541226814647045E+05,      /* J = 54 */
(PID.TID 0000.0001)                 1.405874576853274E+05,      /* J = 55 */
(PID.TID 0000.0001)                 1.267135464063795E+05,      /* J = 56 */
(PID.TID 0000.0001)                 1.125343710953429E+05,      /* J = 57 */
(PID.TID 0000.0001)                 9.808409062749070E+04,      /* J = 58 */
(PID.TID 0000.0001)                 8.339751699416524E+04,      /* J = 59 */
(PID.TID 0000.0001)                 6.851003143764105E+04,      /* J = 60 */
(PID.TID 0000.0001)                 5.345749921461356E+04,      /* J = 61 */
(PID.TID 0000.0001)                 3.827618319365421E+04,      /* J = 62 */
(PID.TID 0000.0001)                 2.300265649478360E+04,      /* J = 63 */
(PID.TID 0000.0001)                 7.673714381622299E+03       /* J = 64 */
(PID.TID 0000.0001)     ;
(PID.TID 0000.0001) dyF =  /* dyF(:,1,:,1) ( units: m ) */
(PID.TID 0000.0001)   128 @  3.126866438026091E+05              /* I =  1:128 */
(PID.TID 0000.0001)     ;
(PID.TID 0000.0001) dyF =  /* dyF(1,:,1,:) ( units: m ) */
(PID.TID 0000.0001)    64 @  3.126866438026091E+05              /* J =  1: 64 */
(PID.TID 0000.0001)     ;
(PID.TID 0000.0001) dxG =  /* dxG(:,1,:,1) ( units: m ) */
(PID.TID 0000.0001)   128 @  0.000000000000000E+00              /* I =  1:128 */
(PID.TID 0000.0001)     ;
(PID.TID 0000.0001) dxG =  /* dxG(1,:,1,:) ( units: m ) */
(PID.TID 0000.0001)                 0.000000000000000E+00,      /* J =  1 */
(PID.TID 0000.0001)                 1.534280640463982E+04,      /* J =  2 */
(PID.TID 0000.0001)                 3.064865064477965E+04,      /* J =  3 */
(PID.TID 0000.0001)                 4.588065960101153E+04,      /* J =  4 */
(PID.TID 0000.0001)                 6.100213802959342E+04,      /* J =  5 */
(PID.TID 0000.0001)                 7.597665696450579E+04,      /* J =  6 */
(PID.TID 0000.0001)                 9.076814147802141E+04,      /* J =  7 */
(PID.TID 0000.0001)                 1.053409575883663E+05,      /* J =  8 */
(PID.TID 0000.0001)                 1.196599981051027E+05,      /* J =  9 */
(PID.TID 0000.0001)                 1.336907672054259E+05,      /* J = 10 */
(PID.TID 0000.0001)                 1.473994635376230E+05,      /* J = 11 */
(PID.TID 0000.0001)                 1.607530616514898E+05,      /* J = 12 */
(PID.TID 0000.0001)                 1.737193915595329E+05,      /* J = 13 */
(PID.TID 0000.0001)                 1.862672162372875E+05,      /* J = 14 */
(PID.TID 0000.0001)                 1.983663068760452E+05,      /* J = 15 */
(PID.TID 0000.0001)                 2.099875157067021E+05,      /* J = 16 */
(PID.TID 0000.0001)                 2.211028462192875E+05,      /* J = 17 */
(PID.TID 0000.0001)                 2.316855206090085E+05,      /* J = 18 */
(PID.TID 0000.0001)                 2.417100442863276E+05,      /* J = 19 */
(PID.TID 0000.0001)                 2.511522672956614E+05,      /* J = 20 */
(PID.TID 0000.0001)                 2.599894424947394E+05,      /* J = 21 */
(PID.TID 0000.0001)                 2.682002803544621E+05,      /* J = 22 */
(PID.TID 0000.0001)                 2.757650002472408E+05,      /* J = 23 */
(PID.TID 0000.0001)                 2.826653781002625E+05,      /* J = 24 */
(PID.TID 0000.0001)                 2.888847902988777E+05,      /* J = 25 */
(PID.TID 0000.0001)                 2.944082537343438E+05,      /* J = 26 */
(PID.TID 0000.0001)                 2.992224618994463E+05,      /* J = 27 */
(PID.TID 0000.0001)                 3.033158169450409E+05,      /* J = 28 */
(PID.TID 0000.0001)                 3.066784576202870E+05,      /* J = 29 */
(PID.TID 0000.0001)                 3.093022830292655E+05,      /* J = 30 */
(PID.TID 0000.0001)                 3.111809721467461E+05,      /* J = 31 */
(PID.TID 0000.0001)                 3.123099990460912E+05,      /* J = 32 */
(PID.TID 0000.0001)                 3.126866438026091E+05,      /* J = 33 */
(PID.TID 0000.0001)                 3.123099990460912E+05,      /* J = 34 */
(PID.TID 0000.0001)                 3.111809721467461E+05,      /* J = 35 */
(PID.TID 0000.0001)                 3.093022830292655E+05,      /* J = 36 */
(PID.TID 0000.0001)                 3.066784576202870E+05,      /* J = 37 */
(PID.TID 0000.0001)                 3.033158169450409E+05,      /* J = 38 */
(PID.TID 0000.0001)                 2.992224618994463E+05,      /* J = 39 */
(PID.TID 0000.0001)                 2.944082537343438E+05,      /* J = 40 */
(PID.TID 0000.0001)                 2.888847902988777E+05,      /* J = 41 */
(PID.TID 0000.0001)                 2.826653781002625E+05,      /* J = 42 */
(PID.TID 0000.0001)                 2.757650002472408E+05,      /* J = 43 */
(PID.TID 0000.0001)                 2.682002803544621E+05,      /* J = 44 */
(PID.TID 0000.0001)                 2.599894424947394E+05,      /* J = 45 */
(PID.TID 0000.0001)                 2.511522672956614E+05,      /* J = 46 */
(PID.TID 0000.0001)                 2.417100442863276E+05,      /* J = 47 */
(PID.TID 0000.0001)                 2.316855206090085E+05,      /* J = 48 */
(PID.TID 0000.0001)                 2.211028462192875E+05,      /* J = 49 */
(PID.TID 0000.0001)                 2.099875157067021E+05,      /* J = 50 */
(PID.TID 0000.0001)                 1.983663068760452E+05,      /* J = 51 */
(PID.TID 0000.0001)                 1.862672162372875E+05,      /* J = 52 */
(PID.TID 0000.0001)                 1.737193915595329E+05,      /* J = 53 */
(PID.TID 0000.0001)                 1.607530616514898E+05,      /* J = 54 */
(PID.TID 0000.0001)                 1.473994635376230E+05,      /* J = 55 */
(PID.TID 0000.0001)                 1.336907672054259E+05,      /* J = 56 */
(PID.TID 0000.0001)                 1.196599981051027E+05,      /* J = 57 */
(PID.TID 0000.0001)                 1.053409575883663E+05,      /* J = 58 */
(PID.TID 0000.0001)                 9.076814147802141E+04,      /* J = 59 */
(PID.TID 0000.0001)                 7.597665696450579E+04,      /* J = 60 */
(PID.TID 0000.0001)                 6.100213802959342E+04,      /* J = 61 */
(PID.TID 0000.0001)                 4.588065960101153E+04,      /* J = 62 */
(PID.TID 0000.0001)                 3.064865064477965E+04,      /* J = 63 */
(PID.TID 0000.0001)                 1.534280640463982E+04       /* J = 64 */
(PID.TID 0000.0001)     ;
(PID.TID 0000.0001) dyG =  /* dyG(:,1,:,1) ( units: m ) */
(PID.TID 0000.0001)   128 @  3.126866438026091E+05              /* I =  1:128 */
(PID.TID 0000.0001)     ;
(PID.TID 0000.0001) dyG =  /* dyG(1,:,1,:) ( units: m ) */
(PID.TID 0000.0001)    64 @  3.126866438026091E+05              /* J =  1: 64 */
(PID.TID 0000.0001)     ;
(PID.TID 0000.0001) dxC =  /* dxC(:,1,:,1) ( units: m ) */
(PID.TID 0000.0001)   128 @  7.673714381622299E+03              /* I =  1:128 */
(PID.TID 0000.0001)     ;
(PID.TID 0000.0001) dxC =  /* dxC(1,:,1,:) ( units: m ) */
(PID.TID 0000.0001)                 7.673714381622299E+03,      /* J =  1 */
(PID.TID 0000.0001)                 2.300265649478360E+04,      /* J =  2 */
(PID.TID 0000.0001)                 3.827618319365421E+04,      /* J =  3 */
(PID.TID 0000.0001)                 5.345749921461356E+04,      /* J =  4 */
(PID.TID 0000.0001)                 6.851003143764105E+04,      /* J =  5 */
(PID.TID 0000.0001)                 8.339751699416524E+04,      /* J =  6 */
(PID.TID 0000.0001)                 9.808409062749070E+04,      /* J =  7 */
(PID.TID 0000.0001)                 1.125343710953429E+05,      /* J =  8 */
(PID.TID 0000.0001)                 1.267135464063795E+05,      /* J =  9 */
(PID.TID 0000.0001)                 1.405874576853274E+05,      /* J = 10 */
(PID.TID 0000.0001)                 1.541226814647045E+05,      /* J = 11 */
(PID.TID 0000.0001)                 1.672866102048804E+05,      /* J = 12 */
(PID.TID 0000.0001)                 1.800475308484964E+05,      /* J = 13 */
(PID.TID 0000.0001)                 1.923747012199971E+05,      /* J = 14 */
(PID.TID 0000.0001)                 2.042384240862251E+05,      /* J = 15 */
(PID.TID 0000.0001)                 2.156101186996563E+05,      /* J = 16 */
(PID.TID 0000.0001)                 2.264623896519241E+05,      /* J = 17 */
(PID.TID 0000.0001)                 2.367690928717577E+05,      /* J = 18 */
(PID.TID 0000.0001)                 2.465053986083400E+05,      /* J = 19 */
(PID.TID 0000.0001)                 2.556478512483520E+05,      /* J = 20 */
(PID.TID 0000.0001)                 2.641744258225996E+05,      /* J = 21 */
(PID.TID 0000.0001)                 2.720645810660936E+05,      /* J = 22 */
(PID.TID 0000.0001)                 2.792993089037565E+05,      /* J = 23 */
(PID.TID 0000.0001)                 2.858611802425402E+05,      /* J = 24 */
(PID.TID 0000.0001)                 2.917343869596373E+05,      /* J = 25 */
(PID.TID 0000.0001)                 2.969047799856344E+05,      /* J = 26 */
(PID.TID 0000.0001)                 3.013599033908587E+05,      /* J = 27 */
(PID.TID 0000.0001)                 3.050890243928043E+05,      /* J = 28 */
(PID.TID 0000.0001)                 3.080831592123453E+05,      /* J = 29 */
(PID.TID 0000.0001)                 3.103350947164461E+05,      /* J = 30 */
(PID.TID 0000.0001)                 3.118394057952309E+05,      /* J = 31 */
(PID.TID 0000.0001)     2 @  3.125924684315491E+05,             /* J = 32: 33 */
(PID.TID 0000.0001)                 3.118394057952309E+05,      /* J = 34 */
(PID.TID 0000.0001)                 3.103350947164461E+05,      /* J = 35 */
(PID.TID 0000.0001)                 3.080831592123453E+05,      /* J = 36 */
(PID.TID 0000.0001)                 3.050890243928043E+05,      /* J = 37 */
(PID.TID 0000.0001)                 3.013599033908587E+05,      /* J = 38 */
(PID.TID 0000.0001)                 2.969047799856344E+05,      /* J = 39 */
(PID.TID 0000.0001)                 2.917343869596373E+05,      /* J = 40 */
(PID.TID 0000.0001)                 2.858611802425402E+05,      /* J = 41 */
(PID.TID 0000.0001)                 2.792993089037565E+05,      /* J = 42 */
(PID.TID 0000.0001)                 2.720645810660936E+05,      /* J = 43 */
(PID.TID 0000.0001)                 2.641744258225996E+05,      /* J = 44 */
(PID.TID 0000.0001)                 2.556478512483520E+05,      /* J = 45 */
(PID.TID 0000.0001)                 2.465053986083400E+05,      /* J = 46 */
(PID.TID 0000.0001)                 2.367690928717577E+05,      /* J = 47 */
(PID.TID 0000.0001)                 2.264623896519241E+05,      /* J = 48 */
(PID.TID 0000.0001)                 2.156101186996563E+05,      /* J = 49 */
(PID.TID 0000.0001)                 2.042384240862251E+05,      /* J = 50 */
(PID.TID 0000.0001)                 1.923747012199971E+05,      /* J = 51 */
(PID.TID 0000.0001)                 1.800475308484964E+05,      /* J = 52 */
(PID.TID 0000.0001)                 1.672866102048804E+05,      /* J = 53 */
(PID.TID 0000.0001)                 1.541226814647045E+05,      /* J = 54 */
(PID.TID 0000.0001)                 1.405874576853274E+05,      /* J = 55 */
(PID.TID 0000.0001)                 1.267135464063795E+05,      /* J = 56 */
(PID.TID 0000.0001)                 1.125343710953429E+05,      /* J = 57 */
(PID.TID 0000.0001)                 9.808409062749070E+04,      /* J = 58 */
(PID.TID 0000.0001)                 8.339751699416524E+04,      /* J = 59 */
(PID.TID 0000.0001)                 6.851003143764105E+04,      /* J = 60 */
(PID.TID 0000.0001)                 5.345749921461356E+04,      /* J = 61 */
(PID.TID 0000.0001)                 3.827618319365421E+04,      /* J = 62 */
(PID.TID 0000.0001)                 2.300265649478360E+04,      /* J = 63 */
(PID.TID 0000.0001)                 7.673714381622299E+03       /* J = 64 */
(PID.TID 0000.0001)     ;
(PID.TID 0000.0001) dyC =  /* dyC(:,1,:,1) ( units: m ) */
(PID.TID 0000.0001)   128 @  3.126866438026091E+05              /* I =  1:128 */
(PID.TID 0000.0001)     ;
(PID.TID 0000.0001) dyC =  /* dyC(1,:,1,:) ( units: m ) */
(PID.TID 0000.0001)    64 @  3.126866438026091E+05              /* J =  1: 64 */
(PID.TID 0000.0001)     ;
(PID.TID 0000.0001) dxV =  /* dxV(:,1,:,1) ( units: m ) */
(PID.TID 0000.0001)   128 @  0.000000000000000E+00              /* I =  1:128 */
(PID.TID 0000.0001)     ;
(PID.TID 0000.0001) dxV =  /* dxV(1,:,1,:) ( units: m ) */
(PID.TID 0000.0001)                 0.000000000000000E+00,      /* J =  1 */
(PID.TID 0000.0001)                 1.534280640463982E+04,      /* J =  2 */
(PID.TID 0000.0001)                 3.064865064477965E+04,      /* J =  3 */
(PID.TID 0000.0001)                 4.588065960101153E+04,      /* J =  4 */
(PID.TID 0000.0001)                 6.100213802959342E+04,      /* J =  5 */
(PID.TID 0000.0001)                 7.597665696450579E+04,      /* J =  6 */
(PID.TID 0000.0001)                 9.076814147802141E+04,      /* J =  7 */
(PID.TID 0000.0001)                 1.053409575883663E+05,      /* J =  8 */
(PID.TID 0000.0001)                 1.196599981051027E+05,      /* J =  9 */
(PID.TID 0000.0001)                 1.336907672054259E+05,      /* J = 10 */
(PID.TID 0000.0001)                 1.473994635376230E+05,      /* J = 11 */
(PID.TID 0000.0001)                 1.607530616514898E+05,      /* J = 12 */
(PID.TID 0000.0001)                 1.737193915595329E+05,      /* J = 13 */
(PID.TID 0000.0001)                 1.862672162372875E+05,      /* J = 14 */
(PID.TID 0000.0001)                 1.983663068760452E+05,      /* J = 15 */
(PID.TID 0000.0001)                 2.099875157067021E+05,      /* J = 16 */
(PID.TID 0000.0001)                 2.211028462192875E+05,      /* J = 17 */
(PID.TID 0000.0001)                 2.316855206090085E+05,      /* J = 18 */
(PID.TID 0000.0001)                 2.417100442863276E+05,      /* J = 19 */
(PID.TID 0000.0001)                 2.511522672956614E+05,      /* J = 20 */
(PID.TID 0000.0001)                 2.599894424947394E+05,      /* J = 21 */
(PID.TID 0000.0001)                 2.682002803544621E+05,      /* J = 22 */
(PID.TID 0000.0001)                 2.757650002472408E+05,      /* J = 23 */
(PID.TID 0000.0001)                 2.826653781002625E+05,      /* J = 24 */
(PID.TID 0000.0001)                 2.888847902988777E+05,      /* J = 25 */
(PID.TID 0000.0001)                 2.944082537343438E+05,      /* J = 26 */
(PID.TID 0000.0001)                 2.992224618994463E+05,      /* J = 27 */
(PID.TID 0000.0001)                 3.033158169450409E+05,      /* J = 28 */
(PID.TID 0000.0001)                 3.066784576202870E+05,      /* J = 29 */
(PID.TID 0000.0001)                 3.093022830292655E+05,      /* J = 30 */
(PID.TID 0000.0001)                 3.111809721467461E+05,      /* J = 31 */
(PID.TID 0000.0001)                 3.123099990460912E+05,      /* J = 32 */
(PID.TID 0000.0001)                 3.126866438026091E+05,      /* J = 33 */
(PID.TID 0000.0001)                 3.123099990460912E+05,      /* J = 34 */
(PID.TID 0000.0001)                 3.111809721467461E+05,      /* J = 35 */
(PID.TID 0000.0001)                 3.093022830292655E+05,      /* J = 36 */
(PID.TID 0000.0001)                 3.066784576202870E+05,      /* J = 37 */
(PID.TID 0000.0001)                 3.033158169450409E+05,      /* J = 38 */
(PID.TID 0000.0001)                 2.992224618994463E+05,      /* J = 39 */
(PID.TID 0000.0001)                 2.944082537343438E+05,      /* J = 40 */
(PID.TID 0000.0001)                 2.888847902988777E+05,      /* J = 41 */
(PID.TID 0000.0001)                 2.826653781002625E+05,      /* J = 42 */
(PID.TID 0000.0001)                 2.757650002472408E+05,      /* J = 43 */
(PID.TID 0000.0001)                 2.682002803544621E+05,      /* J = 44 */
(PID.TID 0000.0001)                 2.599894424947394E+05,      /* J = 45 */
(PID.TID 0000.0001)                 2.511522672956614E+05,      /* J = 46 */
(PID.TID 0000.0001)                 2.417100442863276E+05,      /* J = 47 */
(PID.TID 0000.0001)                 2.316855206090085E+05,      /* J = 48 */
(PID.TID 0000.0001)                 2.211028462192875E+05,      /* J = 49 */
(PID.TID 0000.0001)                 2.099875157067021E+05,      /* J = 50 */
(PID.TID 0000.0001)                 1.983663068760452E+05,      /* J = 51 */
(PID.TID 0000.0001)                 1.862672162372875E+05,      /* J = 52 */
(PID.TID 0000.0001)                 1.737193915595329E+05,      /* J = 53 */
(PID.TID 0000.0001)                 1.607530616514898E+05,      /* J = 54 */
(PID.TID 0000.0001)                 1.473994635376230E+05,      /* J = 55 */
(PID.TID 0000.0001)                 1.336907672054259E+05,      /* J = 56 */
(PID.TID 0000.0001)                 1.196599981051027E+05,      /* J = 57 */
(PID.TID 0000.0001)                 1.053409575883663E+05,      /* J = 58 */
(PID.TID 0000.0001)                 9.076814147802141E+04,      /* J = 59 */
(PID.TID 0000.0001)                 7.597665696450579E+04,      /* J = 60 */
(PID.TID 0000.0001)                 6.100213802959342E+04,      /* J = 61 */
(PID.TID 0000.0001)                 4.588065960101153E+04,      /* J = 62 */
(PID.TID 0000.0001)                 3.064865064477965E+04,      /* J = 63 */
(PID.TID 0000.0001)                 1.534280640463982E+04       /* J = 64 */
(PID.TID 0000.0001)     ;
(PID.TID 0000.0001) dyU =  /* dyU(:,1,:,1) ( units: m ) */
(PID.TID 0000.0001)   128 @  3.126866438026091E+05              /* I =  1:128 */
(PID.TID 0000.0001)     ;
(PID.TID 0000.0001) dyU =  /* dyU(1,:,1,:) ( units: m ) */
(PID.TID 0000.0001)    64 @  3.126866438026091E+05              /* J =  1: 64 */
(PID.TID 0000.0001)     ;
(PID.TID 0000.0001) rA  =  /* rA (:,1,:,1) ( units: m^2 ) */
(PID.TID 0000.0001)   128 @  2.399227099019018E+09              /* I =  1:128 */
(PID.TID 0000.0001)     ;
(PID.TID 0000.0001) rA  =  /* rA (1,:,1,:) ( units: m^2 ) */
(PID.TID 0000.0001)                 2.399227099019018E+09,      /* J =  1 */
(PID.TID 0000.0001)                 7.191901348828056E+09,      /* J =  2 */
(PID.TID 0000.0001)                 1.196724967835171E+10,      /* J =  3 */
(PID.TID 0000.0001)                 1.671376785519299E+10,      /* J =  4 */
(PID.TID 0000.0001)                 2.142002110131771E+10,      /* J =  5 */
(PID.TID 0000.0001)                 2.607467164043704E+10,      /* J =  6 */
(PID.TID 0000.0001)                 3.066650601170349E+10,      /* J =  7 */
(PID.TID 0000.0001)                 3.518446208391881E+10,      /* J =  8 */
(PID.TID 0000.0001)                 3.961765570517892E+10,      /* J =  9 */
(PID.TID 0000.0001)                 4.395540692374860E+10,      /* J = 10 */
(PID.TID 0000.0001)                 4.818726571700000E+10,      /* J = 11 */
(PID.TID 0000.0001)                 5.230303716643333E+10,      /* J = 12 */
(PID.TID 0000.0001)                 5.629280601812741E+10,      /* J = 13 */
(PID.TID 0000.0001)                 6.014696056945659E+10,      /* J = 14 */
(PID.TID 0000.0001)                 6.385621582452237E+10,      /* J = 15 */
(PID.TID 0000.0001)                 6.741163586252303E+10,      /* J = 16 */
(PID.TID 0000.0001)                 7.080465536516846E+10,      /* J = 17 */
(PID.TID 0000.0001)                 7.402710025128452E+10,      /* J = 18 */
(PID.TID 0000.0001)                 7.707120736888658E+10,      /* J = 19 */
(PID.TID 0000.0001)                 7.992964319729683E+10,      /* J = 20 */
(PID.TID 0000.0001)                 8.259552151423444E+10,      /* J = 21 */
(PID.TID 0000.0001)                 8.506241998533159E+10,      /* J = 22 */
(PID.TID 0000.0001)                 8.732439563609566E+10,      /* J = 23 */
(PID.TID 0000.0001)                 8.937599916905872E+10,      /* J = 24 */
(PID.TID 0000.0001)                 9.121228809161066E+10,      /* J = 25 */
(PID.TID 0000.0001)                 9.282883862289705E+10,      /* J = 26 */
(PID.TID 0000.0001)                 9.422175635109474E+10,      /* J = 27 */
(PID.TID 0000.0001)                 9.538768561539165E+10,      /* J = 28 */
(PID.TID 0000.0001)                 9.632381759006650E+10,      /* J = 29 */
(PID.TID 0000.0001)                 9.702789705119698E+10,      /* J = 30 */
(PID.TID 0000.0001)                 9.749822780969106E+10,      /* J = 31 */
(PID.TID 0000.0001)     2 @  9.773367679755542E+10,             /* J = 32: 33 */
(PID.TID 0000.0001)                 9.749822780969106E+10,      /* J = 34 */
(PID.TID 0000.0001)                 9.702789705119698E+10,      /* J = 35 */
(PID.TID 0000.0001)                 9.632381759006650E+10,      /* J = 36 */
(PID.TID 0000.0001)                 9.538768561539165E+10,      /* J = 37 */
(PID.TID 0000.0001)                 9.422175635109474E+10,      /* J = 38 */
(PID.TID 0000.0001)                 9.282883862289705E+10,      /* J = 39 */
(PID.TID 0000.0001)                 9.121228809161066E+10,      /* J = 40 */
(PID.TID 0000.0001)                 8.937599916905872E+10,      /* J = 41 */
(PID.TID 0000.0001)                 8.732439563609566E+10,      /* J = 42 */
(PID.TID 0000.0001)                 8.506241998533159E+10,      /* J = 43 */
(PID.TID 0000.0001)                 8.259552151423444E+10,      /* J = 44 */
(PID.TID 0000.0001)                 7.992964319729683E+10,      /* J = 45 */
(PID.TID 0000.0001)                 7.707120736888658E+10,      /* J = 46 */
(PID.TID 0000.0001)                 7.402710025128452E+10,      /* J = 47 */
(PID.TID 0000.0001)                 7.080465536516846E+10,      /* J = 48 */
(PID.TID 0000.0001)                 6.741163586252303E+10,      /* J = 49 */
(PID.TID 0000.0001)                 6.385621582452237E+10,      /* J = 50 */
(PID.TID 0000.0001)                 6.014696056945659E+10,      /* J = 51 */
(PID.TID 0000.0001)                 5.629280601812741E+10,      /* J = 52 */
(PID.TID 0000.0001)                 5.230303716643333E+10,      /* J = 53 */
(PID.TID 0000.0001)                 4.818726571700000E+10,      /* J = 54 */
(PID.TID 0000.0001)                 4.395540692374860E+10,      /* J = 55 */
(PID.TID 0000.0001)                 3.961765570517892E+10,      /* J = 56 */
(PID.TID 0000.0001)                 3.518446208391881E+10,      /* J = 57 */
(PID.TID 0000.0001)                 3.066650601170349E+10,      /* J = 58 */
(PID.TID 0000.0001)                 2.607467164043704E+10,      /* J = 59 */
(PID.TID 0000.0001)                 2.142002110131771E+10,      /* J = 60 */
(PID.TID 0000.0001)                 1.671376785519299E+10,      /* J = 61 */
(PID.TID 0000.0001)                 1.196724967835171E+10,      /* J = 62 */
(PID.TID 0000.0001)                 7.191901348828056E+09,      /* J = 63 */
(PID.TID 0000.0001)                 2.399227099019018E+09       /* J = 64 */
(PID.TID 0000.0001)     ;
(PID.TID 0000.0001) rAw =  /* rAw(:,1,:,1) ( units: m^2 ) */
(PID.TID 0000.0001)   128 @  2.399227099019018E+09              /* I =  1:128 */
(PID.TID 0000.0001)     ;
(PID.TID 0000.0001) rAw =  /* rAw(1,:,1,:) ( units: m^2 ) */
(PID.TID 0000.0001)                 2.399227099019018E+09,      /* J =  1 */
(PID.TID 0000.0001)                 7.191901348828056E+09,      /* J =  2 */
(PID.TID 0000.0001)                 1.196724967835171E+10,      /* J =  3 */
(PID.TID 0000.0001)                 1.671376785519299E+10,      /* J =  4 */
(PID.TID 0000.0001)                 2.142002110131771E+10,      /* J =  5 */
(PID.TID 0000.0001)                 2.607467164043704E+10,      /* J =  6 */
(PID.TID 0000.0001)                 3.066650601170349E+10,      /* J =  7 */
(PID.TID 0000.0001)                 3.518446208391881E+10,      /* J =  8 */
(PID.TID 0000.0001)                 3.961765570517892E+10,      /* J =  9 */
(PID.TID 0000.0001)                 4.395540692374860E+10,      /* J = 10 */
(PID.TID 0000.0001)                 4.818726571700000E+10,      /* J = 11 */
(PID.TID 0000.0001)                 5.230303716643333E+10,      /* J = 12 */
(PID.TID 0000.0001)                 5.629280601812741E+10,      /* J = 13 */
(PID.TID 0000.0001)                 6.014696056945659E+10,      /* J = 14 */
(PID.TID 0000.0001)                 6.385621582452237E+10,      /* J = 15 */
(PID.TID 0000.0001)                 6.741163586252303E+10,      /* J = 16 */
(PID.TID 0000.0001)                 7.080465536516846E+10,      /* J = 17 */
(PID.TID 0000.0001)                 7.402710025128452E+10,      /* J = 18 */
(PID.TID 0000.0001)                 7.707120736888658E+10,      /* J = 19 */
(PID.TID 0000.0001)                 7.992964319729683E+10,      /* J = 20 */
(PID.TID 0000.0001)                 8.259552151423444E+10,      /* J = 21 */
(PID.TID 0000.0001)                 8.506241998533159E+10,      /* J = 22 */
(PID.TID 0000.0001)                 8.732439563609566E+10,      /* J = 23 */
(PID.TID 0000.0001)                 8.937599916905872E+10,      /* J = 24 */
(PID.TID 0000.0001)                 9.121228809161066E+10,      /* J = 25 */
(PID.TID 0000.0001)                 9.282883862289705E+10,      /* J = 26 */
(PID.TID 0000.0001)                 9.422175635109474E+10,      /* J = 27 */
(PID.TID 0000.0001)                 9.538768561539165E+10,      /* J = 28 */
(PID.TID 0000.0001)                 9.632381759006650E+10,      /* J = 29 */
(PID.TID 0000.0001)                 9.702789705119698E+10,      /* J = 30 */
(PID.TID 0000.0001)                 9.749822780969106E+10,      /* J = 31 */
(PID.TID 0000.0001)     2 @  9.773367679755542E+10,             /* J = 32: 33 */
(PID.TID 0000.0001)                 9.749822780969106E+10,      /* J = 34 */
(PID.TID 0000.0001)                 9.702789705119698E+10,      /* J = 35 */
(PID.TID 0000.0001)                 9.632381759006650E+10,      /* J = 36 */
(PID.TID 0000.0001)                 9.538768561539165E+10,      /* J = 37 */
(PID.TID 0000.0001)                 9.422175635109474E+10,      /* J = 38 */
(PID.TID 0000.0001)                 9.282883862289705E+10,      /* J = 39 */
(PID.TID 0000.0001)                 9.121228809161066E+10,      /* J = 40 */
(PID.TID 0000.0001)                 8.937599916905872E+10,      /* J = 41 */
(PID.TID 0000.0001)                 8.732439563609566E+10,      /* J = 42 */
(PID.TID 0000.0001)                 8.506241998533159E+10,      /* J = 43 */
(PID.TID 0000.0001)                 8.259552151423444E+10,      /* J = 44 */
(PID.TID 0000.0001)                 7.992964319729683E+10,      /* J = 45 */
(PID.TID 0000.0001)                 7.707120736888658E+10,      /* J = 46 */
(PID.TID 0000.0001)                 7.402710025128452E+10,      /* J = 47 */
(PID.TID 0000.0001)                 7.080465536516846E+10,      /* J = 48 */
(PID.TID 0000.0001)                 6.741163586252303E+10,      /* J = 49 */
(PID.TID 0000.0001)                 6.385621582452237E+10,      /* J = 50 */
(PID.TID 0000.0001)                 6.014696056945659E+10,      /* J = 51 */
(PID.TID 0000.0001)                 5.629280601812741E+10,      /* J = 52 */
(PID.TID 0000.0001)                 5.230303716643333E+10,      /* J = 53 */
(PID.TID 0000.0001)                 4.818726571700000E+10,      /* J = 54 */
(PID.TID 0000.0001)                 4.395540692374860E+10,      /* J = 55 */
(PID.TID 0000.0001)                 3.961765570517892E+10,      /* J = 56 */
(PID.TID 0000.0001)                 3.518446208391881E+10,      /* J = 57 */
(PID.TID 0000.0001)                 3.066650601170349E+10,      /* J = 58 */
(PID.TID 0000.0001)                 2.607467164043704E+10,      /* J = 59 */
(PID.TID 0000.0001)                 2.142002110131771E+10,      /* J = 60 */
(PID.TID 0000.0001)                 1.671376785519299E+10,      /* J = 61 */
(PID.TID 0000.0001)                 1.196724967835171E+10,      /* J = 62 */
(PID.TID 0000.0001)                 7.191901348828056E+09,      /* J = 63 */
(PID.TID 0000.0001)                 2.399227099019018E+09       /* J = 64 */
(PID.TID 0000.0001)     ;
(PID.TID 0000.0001) rAs =  /* rAs(:,1,:,1) ( units: m^2 ) */
(PID.TID 0000.0001)   128 @  0.000000000000000E+00              /* I =  1:128 */
(PID.TID 0000.0001)     ;
(PID.TID 0000.0001) rAs =  /* rAs(1,:,1,:) ( units: m^2 ) */
(PID.TID 0000.0001)                 0.000000000000000E+00,      /* J =  1 */
(PID.TID 0000.0001)                 4.797008993346594E+09,      /* J =  2 */
(PID.TID 0000.0001)                 9.582461571859739E+09,      /* J =  3 */
(PID.TID 0000.0001)                 1.434482916112175E+10,      /* J =  4 */
(PID.TID 0000.0001)                 1.907263880047594E+10,      /* J =  5 */
(PID.TID 0000.0001)                 2.375450078239423E+10,      /* J =  6 */
(PID.TID 0000.0001)                 2.837913609127881E+10,      /* J =  7 */
(PID.TID 0000.0001)                 3.293540357560110E+10,      /* J =  8 */
(PID.TID 0000.0001)                 3.741232678790870E+10,      /* J =  9 */
(PID.TID 0000.0001)                 4.179912042805190E+10,      /* J = 10 */
(PID.TID 0000.0001)                 4.608521632591324E+10,      /* J = 11 */
(PID.TID 0000.0001)                 5.026028890105701E+10,      /* J = 12 */
(PID.TID 0000.0001)                 5.431428003795675E+10,      /* J = 13 */
(PID.TID 0000.0001)                 5.823742331687641E+10,      /* J = 14 */
(PID.TID 0000.0001)                 6.202026754202965E+10,      /* J = 15 */
(PID.TID 0000.0001)                 6.565369951034003E+10,      /* J = 16 */
(PID.TID 0000.0001)                 6.912896596594559E+10,      /* J = 17 */
(PID.TID 0000.0001)                 7.243769468755632E+10,      /* J = 18 */
(PID.TID 0000.0001)                 7.557191465787256E+10,      /* J = 19 */
(PID.TID 0000.0001)                 7.852407526645966E+10,      /* J = 20 */
(PID.TID 0000.0001)                 8.128706449983365E+10,      /* J = 21 */
(PID.TID 0000.0001)                 8.385422607492096E+10,      /* J = 22 */
(PID.TID 0000.0001)                 8.621937547463148E+10,      /* J = 23 */
(PID.TID 0000.0001)                 8.837681484689812E+10,      /* J = 24 */
(PID.TID 0000.0001)                 9.032134673130376E+10,      /* J = 25 */
(PID.TID 0000.0001)                 9.204828658021815E+10,      /* J = 26 */
(PID.TID 0000.0001)                 9.355347404428317E+10,      /* J = 27 */
(PID.TID 0000.0001)                 9.483328299505896E+10,      /* J = 28 */
(PID.TID 0000.0001)                 9.588463026068500E+10,      /* J = 29 */
(PID.TID 0000.0001)                 9.670498305351135E+10,      /* J = 30 */
(PID.TID 0000.0001)                 9.729236507180571E+10,      /* J = 31 */
(PID.TID 0000.0001)                 9.764536126083739E+10,      /* J = 32 */
(PID.TID 0000.0001)                 9.776312122186816E+10,      /* J = 33 */
(PID.TID 0000.0001)                 9.764536126083739E+10,      /* J = 34 */
(PID.TID 0000.0001)                 9.729236507180571E+10,      /* J = 35 */
(PID.TID 0000.0001)                 9.670498305351135E+10,      /* J = 36 */
(PID.TID 0000.0001)                 9.588463026068500E+10,      /* J = 37 */
(PID.TID 0000.0001)                 9.483328299505896E+10,      /* J = 38 */
(PID.TID 0000.0001)                 9.355347404428317E+10,      /* J = 39 */
(PID.TID 0000.0001)                 9.204828658021815E+10,      /* J = 40 */
(PID.TID 0000.0001)                 9.032134673130376E+10,      /* J = 41 */
(PID.TID 0000.0001)                 8.837681484689812E+10,      /* J = 42 */
(PID.TID 0000.0001)                 8.621937547463148E+10,      /* J = 43 */
(PID.TID 0000.0001)                 8.385422607492096E+10,      /* J = 44 */
(PID.TID 0000.0001)                 8.128706449983365E+10,      /* J = 45 */
(PID.TID 0000.0001)                 7.852407526645966E+10,      /* J = 46 */
(PID.TID 0000.0001)                 7.557191465787256E+10,      /* J = 47 */
(PID.TID 0000.0001)                 7.243769468755632E+10,      /* J = 48 */
(PID.TID 0000.0001)                 6.912896596594559E+10,      /* J = 49 */
(PID.TID 0000.0001)                 6.565369951034003E+10,      /* J = 50 */
(PID.TID 0000.0001)                 6.202026754202965E+10,      /* J = 51 */
(PID.TID 0000.0001)                 5.823742331687641E+10,      /* J = 52 */
(PID.TID 0000.0001)                 5.431428003795675E+10,      /* J = 53 */
(PID.TID 0000.0001)                 5.026028890105701E+10,      /* J = 54 */
(PID.TID 0000.0001)                 4.608521632591324E+10,      /* J = 55 */
(PID.TID 0000.0001)                 4.179912042805190E+10,      /* J = 56 */
(PID.TID 0000.0001)                 3.741232678790870E+10,      /* J = 57 */
(PID.TID 0000.0001)                 3.293540357560110E+10,      /* J = 58 */
(PID.TID 0000.0001)                 2.837913609127881E+10,      /* J = 59 */
(PID.TID 0000.0001)                 2.375450078239423E+10,      /* J = 60 */
(PID.TID 0000.0001)                 1.907263880047594E+10,      /* J = 61 */
(PID.TID 0000.0001)                 1.434482916112175E+10,      /* J = 62 */
(PID.TID 0000.0001)                 9.582461571859739E+09,      /* J = 63 */
(PID.TID 0000.0001)                 4.797008993346594E+09       /* J = 64 */
(PID.TID 0000.0001)     ;
(PID.TID 0000.0001) globalArea = /* Integrated horizontal Area (m^2) */
(PID.TID 0000.0001)                 3.303845519010005E+14
(PID.TID 0000.0001)     ;
(PID.TID 0000.0001) the_run_name = /* Name of this simulation */
(PID.TID 0000.0001)               'Darwin12'
(PID.TID 0000.0001)     ;
(PID.TID 0000.0001) // =======================================================
(PID.TID 0000.0001) // End of Model config. summary
(PID.TID 0000.0001) // =======================================================
(PID.TID 0000.0001) 
(PID.TID 0000.0001) == Packages configuration : Check & print summary ==
(PID.TID 0000.0001) 
(PID.TID 0000.0001) GMREDI_CHECK: #define GMREDI
(PID.TID 0000.0001) GM_AdvForm =     /* if FALSE => use SkewFlux Form */
(PID.TID 0000.0001)                   F
(PID.TID 0000.0001)     ;
(PID.TID 0000.0001) GM_InMomAsStress = /* if TRUE => apply as Eddy Stress */
(PID.TID 0000.0001)                   F
(PID.TID 0000.0001)     ;
(PID.TID 0000.0001) GM_AdvSeparate = /* Calc Bolus & Euler Adv. separately */
(PID.TID 0000.0001)                   F
(PID.TID 0000.0001)     ;
(PID.TID 0000.0001) GM_ExtraDiag =   /* Tensor Extra Diag (line 1&2) non 0 */
(PID.TID 0000.0001)                   F
(PID.TID 0000.0001)     ;
(PID.TID 0000.0001) GM_isopycK =    /* Background Isopyc. Diffusivity [m^2/s] */
(PID.TID 0000.0001)                 1.000000000000000E+03
(PID.TID 0000.0001)     ;
(PID.TID 0000.0001) GM_skewflx*K =  /* Background GM_SkewFlx Diffusivity [m^2/s] */
(PID.TID 0000.0001)                 1.000000000000000E+03
(PID.TID 0000.0001)     ;
(PID.TID 0000.0001) GM_advec*K =    /* Backg. GM-Advec(=Bolus) Diffusivity [m^2/s]*/
(PID.TID 0000.0001)                 0.000000000000000E+00
(PID.TID 0000.0001)     ;
(PID.TID 0000.0001) GM_Kmin_horiz = /* Minimum Horizontal Diffusivity [m^2/s] */
(PID.TID 0000.0001)                 5.000000000000000E+01
(PID.TID 0000.0001)     ;
(PID.TID 0000.0001) GM_Visbeck_alpha = /* Visbeck alpha coeff. [-] */
(PID.TID 0000.0001)                 0.000000000000000E+00
(PID.TID 0000.0001)     ;
(PID.TID 0000.0001) GM_Small_Number =  /* epsilon used in slope calc */
(PID.TID 0000.0001)                 9.999999999999999E-21
(PID.TID 0000.0001)     ;
(PID.TID 0000.0001) GM_slopeSqCutoff = /* Slope^2 cut-off value */
(PID.TID 0000.0001)                 1.000000000000000E+08
(PID.TID 0000.0001)     ;
(PID.TID 0000.0001) GM_taper_scheme =  /* Type of Tapering/Clipping scheme */
(PID.TID 0000.0001)               'dm95                                    '
(PID.TID 0000.0001)     ;
(PID.TID 0000.0001) GM_maxSlope =  /* Maximum Slope (Tapering/Clipping) */
(PID.TID 0000.0001)                 1.000000000000000E-02
(PID.TID 0000.0001)     ;
(PID.TID 0000.0001) GM_facTrL2dz = /* Minimum Trans.Layer Thick. (factor of dz) */
(PID.TID 0000.0001)                 1.000000000000000E+00
(PID.TID 0000.0001)     ;
(PID.TID 0000.0001) GM_facTrL2ML = /* Max.Trans.Layer Thick. (factor of MxL Depth)*/
(PID.TID 0000.0001)                 5.000000000000000E+00
(PID.TID 0000.0001)     ;
(PID.TID 0000.0001) GM_maxTransLay = /* Maximum Transition Layer Thickness [m] */
(PID.TID 0000.0001)                 5.000000000000000E+02
(PID.TID 0000.0001)     ;
(PID.TID 0000.0001) GM_UseBVP = /* if TRUE => use bvp a la Ferrari et al. (2010) */
(PID.TID 0000.0001)                   F
(PID.TID 0000.0001)     ;
(PID.TID 0000.0001) GM_BVP_ModeNumber = /* Vertical mode number for BVP wave speed */
(PID.TID 0000.0001)                       1
(PID.TID 0000.0001)     ;
(PID.TID 0000.0001) GM_BVP_cMin = /* Minimum wave speed for BVP [m/s] */
(PID.TID 0000.0001)                 1.000000000000000E-01
(PID.TID 0000.0001)     ;
(PID.TID 0000.0001) GM_useSubMeso = /* if TRUE => use Sub-Meso param. (B.Fox-Kemper) */
(PID.TID 0000.0001)                   F
(PID.TID 0000.0001)     ;
(PID.TID 0000.0001) subMeso_Ceff = /* efficiency coeff. of Mixed-Layer Eddies [-] */
(PID.TID 0000.0001)                 7.000000000000001E-02
(PID.TID 0000.0001)     ;
(PID.TID 0000.0001) subMeso_invTau = /* inverse of Sub-Meso mixing time-scale [/s] */
(PID.TID 0000.0001)                 2.000000000000000E-06
(PID.TID 0000.0001)     ;
(PID.TID 0000.0001) subMeso_LfMin = /* minimum length-scale "Lf" [m] */
(PID.TID 0000.0001)                 1.000000000000000E+03
(PID.TID 0000.0001)     ;
(PID.TID 0000.0001) subMeso_Lmax = /* maximum grid-scale length [m] */
(PID.TID 0000.0001)                 1.100000000000000E+05
(PID.TID 0000.0001)     ;
(PID.TID 0000.0001) PTRACERS_CHECK: #define ALLOW_PTRACERS
(PID.TID 0000.0001) PTRACERS_CHECK: updated GAD_OlMinSize=  2  0  1
(PID.TID 0000.0001) // ===================================
(PID.TID 0000.0001) // PTRACERS parameters
(PID.TID 0000.0001) // ===================================
(PID.TID 0000.0001) PTRACERS_numInUse = /* number of tracers */
(PID.TID 0000.0001)                      97
(PID.TID 0000.0001)     ;
(PID.TID 0000.0001) PTRACERS_Iter0 = /* timestep number when tracers are initialized */
(PID.TID 0000.0001)                 5644800
(PID.TID 0000.0001)     ;
(PID.TID 0000.0001) PTRACERS_startAllTrc =/* all tracers start @ startTime */
(PID.TID 0000.0001)                   T
(PID.TID 0000.0001)     ;
(PID.TID 0000.0001) PTRACERS_addSrelax2EmP =/* add Salt relaxation to EmP */
(PID.TID 0000.0001)                   F
(PID.TID 0000.0001)     ;
(PID.TID 0000.0001) PTRACERS_dTLev =   /* Ptracer timestep ( s ) */
(PID.TID 0000.0001)    15 @  4.320000000000000E+04              /* K =  1: 15 */
(PID.TID 0000.0001)     ;
(PID.TID 0000.0001) PTRACERS_dumpFreq = /* Frequency^-1 for snapshot output (s) */
(PID.TID 0000.0001)                 3.110400000000000E+07
(PID.TID 0000.0001)     ;
(PID.TID 0000.0001) PTRACERS_taveFreq = /* Frequency^-1 for time-Aver. output (s) */
(PID.TID 0000.0001)                 2.592000000000000E+06
(PID.TID 0000.0001)     ;
(PID.TID 0000.0001) PTRACERS_useRecords = /* all tracers in 1 file */
(PID.TID 0000.0001)                   F
(PID.TID 0000.0001)     ;
(PID.TID 0000.0001) PTRACERS_timeave_mnc = /* use MNC for Tave output */
(PID.TID 0000.0001)                   T
(PID.TID 0000.0001)     ;
(PID.TID 0000.0001) PTRACERS_snapshot_mnc = /* use MNC for snapshot output */
(PID.TID 0000.0001)                   T
(PID.TID 0000.0001)     ;
(PID.TID 0000.0001) PTRACERS_pickup_write_mnc = /* use MNC for writing pickups */
(PID.TID 0000.0001)                   F
(PID.TID 0000.0001)     ;
(PID.TID 0000.0001) PTRACERS_pickup_read_mnc = /* use MNC for reading pickups */
(PID.TID 0000.0001)                   F
(PID.TID 0000.0001)     ;
(PID.TID 0000.0001)  -----------------------------------
(PID.TID 0000.0001)  tracer number :    1
(PID.TID 0000.0001) PTRACERS_names = /* Tracer short name */
(PID.TID 0000.0001)               'DIC'
(PID.TID 0000.0001)     ;
(PID.TID 0000.0001) PTRACERS_long_names = /* Tracer long name */
(PID.TID 0000.0001)               ''
(PID.TID 0000.0001)     ;
(PID.TID 0000.0001) PTRACERS_ioLabel = /* tracer IO Label */
(PID.TID 0000.0001)               '01'
(PID.TID 0000.0001)     ;
(PID.TID 0000.0001) PTRACERS_advScheme = /* Advection Scheme */
(PID.TID 0000.0001)                      33
(PID.TID 0000.0001)     ;
(PID.TID 0000.0001) PTRACERS_SOM_Advection = /* tracer uses SOM advection scheme */
(PID.TID 0000.0001)                   F
(PID.TID 0000.0001)     ;
(PID.TID 0000.0001) PTRACERS_ImplVertAdv = /* implicit vert. advection flag */
(PID.TID 0000.0001)                   F
(PID.TID 0000.0001)     ;
(PID.TID 0000.0001) PTRACERS_diffKh = /* Laplacian Diffusivity */
(PID.TID 0000.0001)                 0.000000000000000E+00
(PID.TID 0000.0001)     ;
(PID.TID 0000.0001) PTRACERS_diffK4 = /* Biharmonic Diffusivity */
(PID.TID 0000.0001)                 0.000000000000000E+00
(PID.TID 0000.0001)     ;
(PID.TID 0000.0001) PTRACERS_diffKrNr = /* Vertical Diffusivity */
(PID.TID 0000.0001)    15 @  1.000000000000000E-05              /* K =  1: 15 */
(PID.TID 0000.0001)     ;
(PID.TID 0000.0001) PTRACERS_useGMRedi = /* apply GM-Redi */
(PID.TID 0000.0001)                   T
(PID.TID 0000.0001)     ;
(PID.TID 0000.0001) PTRACERS_useDWNSLP = /* apply DOWN-SLOPE Flow */
(PID.TID 0000.0001)                   F
(PID.TID 0000.0001)     ;
(PID.TID 0000.0001) PTRACERS_useKPP = /* apply KPP scheme */
(PID.TID 0000.0001)                   F
(PID.TID 0000.0001)     ;
(PID.TID 0000.0001) PTRACERS_ref = /* Reference vertical profile */
(PID.TID 0000.0001)    15 @  2.000000000000000E+03              /* K =  1: 15 */
(PID.TID 0000.0001)     ;
(PID.TID 0000.0001) PTRACERS_EvPrRn =/* tracer conc. in Evap. & Rain */
(PID.TID 0000.0001)                 1.234567000000000E+05
(PID.TID 0000.0001)     ;
(PID.TID 0000.0001)  -----------------------------------
(PID.TID 0000.0001)  tracer number :    2
(PID.TID 0000.0001) PTRACERS_names = /* Tracer short name */
(PID.TID 0000.0001)               'NH4'
(PID.TID 0000.0001)     ;
(PID.TID 0000.0001) PTRACERS_long_names = /* Tracer long name */
(PID.TID 0000.0001)               ''
(PID.TID 0000.0001)     ;
(PID.TID 0000.0001) PTRACERS_ioLabel = /* tracer IO Label */
(PID.TID 0000.0001)               '02'
(PID.TID 0000.0001)     ;
(PID.TID 0000.0001) PTRACERS_advScheme = /* Advection Scheme */
(PID.TID 0000.0001)                      33
(PID.TID 0000.0001)     ;
(PID.TID 0000.0001) PTRACERS_SOM_Advection = /* tracer uses SOM advection scheme */
(PID.TID 0000.0001)                   F
(PID.TID 0000.0001)     ;
(PID.TID 0000.0001) PTRACERS_ImplVertAdv = /* implicit vert. advection flag */
(PID.TID 0000.0001)                   F
(PID.TID 0000.0001)     ;
(PID.TID 0000.0001) PTRACERS_diffKh = /* Laplacian Diffusivity */
(PID.TID 0000.0001)                 0.000000000000000E+00
(PID.TID 0000.0001)     ;
(PID.TID 0000.0001) PTRACERS_diffK4 = /* Biharmonic Diffusivity */
(PID.TID 0000.0001)                 0.000000000000000E+00
(PID.TID 0000.0001)     ;
(PID.TID 0000.0001) PTRACERS_diffKrNr = /* Vertical Diffusivity */
(PID.TID 0000.0001)    15 @  1.000000000000000E-05              /* K =  1: 15 */
(PID.TID 0000.0001)     ;
(PID.TID 0000.0001) PTRACERS_useGMRedi = /* apply GM-Redi */
(PID.TID 0000.0001)                   T
(PID.TID 0000.0001)     ;
(PID.TID 0000.0001) PTRACERS_useDWNSLP = /* apply DOWN-SLOPE Flow */
(PID.TID 0000.0001)                   F
(PID.TID 0000.0001)     ;
(PID.TID 0000.0001) PTRACERS_useKPP = /* apply KPP scheme */
(PID.TID 0000.0001)                   F
(PID.TID 0000.0001)     ;
(PID.TID 0000.0001) PTRACERS_ref = /* Reference vertical profile */
(PID.TID 0000.0001)    15 @  0.000000000000000E+00              /* K =  1: 15 */
(PID.TID 0000.0001)     ;
(PID.TID 0000.0001) PTRACERS_EvPrRn =/* tracer conc. in Evap. & Rain */
(PID.TID 0000.0001)                 1.234567000000000E+05
(PID.TID 0000.0001)     ;
(PID.TID 0000.0001)  -----------------------------------
(PID.TID 0000.0001)  tracer number :    3
(PID.TID 0000.0001) PTRACERS_names = /* Tracer short name */
(PID.TID 0000.0001)               'NO2'
(PID.TID 0000.0001)     ;
(PID.TID 0000.0001) PTRACERS_long_names = /* Tracer long name */
(PID.TID 0000.0001)               ''
(PID.TID 0000.0001)     ;
(PID.TID 0000.0001) PTRACERS_ioLabel = /* tracer IO Label */
(PID.TID 0000.0001)               '03'
(PID.TID 0000.0001)     ;
(PID.TID 0000.0001) PTRACERS_advScheme = /* Advection Scheme */
(PID.TID 0000.0001)                      33
(PID.TID 0000.0001)     ;
(PID.TID 0000.0001) PTRACERS_SOM_Advection = /* tracer uses SOM advection scheme */
(PID.TID 0000.0001)                   F
(PID.TID 0000.0001)     ;
(PID.TID 0000.0001) PTRACERS_ImplVertAdv = /* implicit vert. advection flag */
(PID.TID 0000.0001)                   F
(PID.TID 0000.0001)     ;
(PID.TID 0000.0001) PTRACERS_diffKh = /* Laplacian Diffusivity */
(PID.TID 0000.0001)                 0.000000000000000E+00
(PID.TID 0000.0001)     ;
(PID.TID 0000.0001) PTRACERS_diffK4 = /* Biharmonic Diffusivity */
(PID.TID 0000.0001)                 0.000000000000000E+00
(PID.TID 0000.0001)     ;
(PID.TID 0000.0001) PTRACERS_diffKrNr = /* Vertical Diffusivity */
(PID.TID 0000.0001)    15 @  1.000000000000000E-05              /* K =  1: 15 */
(PID.TID 0000.0001)     ;
(PID.TID 0000.0001) PTRACERS_useGMRedi = /* apply GM-Redi */
(PID.TID 0000.0001)                   T
(PID.TID 0000.0001)     ;
(PID.TID 0000.0001) PTRACERS_useDWNSLP = /* apply DOWN-SLOPE Flow */
(PID.TID 0000.0001)                   F
(PID.TID 0000.0001)     ;
(PID.TID 0000.0001) PTRACERS_useKPP = /* apply KPP scheme */
(PID.TID 0000.0001)                   F
(PID.TID 0000.0001)     ;
(PID.TID 0000.0001) PTRACERS_ref = /* Reference vertical profile */
(PID.TID 0000.0001)    15 @  0.000000000000000E+00              /* K =  1: 15 */
(PID.TID 0000.0001)     ;
(PID.TID 0000.0001) PTRACERS_EvPrRn =/* tracer conc. in Evap. & Rain */
(PID.TID 0000.0001)                 1.234567000000000E+05
(PID.TID 0000.0001)     ;
(PID.TID 0000.0001)  -----------------------------------
(PID.TID 0000.0001)  tracer number :    4
(PID.TID 0000.0001) PTRACERS_names = /* Tracer short name */
(PID.TID 0000.0001)               'NO3'
(PID.TID 0000.0001)     ;
(PID.TID 0000.0001) PTRACERS_long_names = /* Tracer long name */
(PID.TID 0000.0001)               ''
(PID.TID 0000.0001)     ;
(PID.TID 0000.0001) PTRACERS_ioLabel = /* tracer IO Label */
(PID.TID 0000.0001)               '04'
(PID.TID 0000.0001)     ;
(PID.TID 0000.0001) PTRACERS_advScheme = /* Advection Scheme */
(PID.TID 0000.0001)                      33
(PID.TID 0000.0001)     ;
(PID.TID 0000.0001) PTRACERS_SOM_Advection = /* tracer uses SOM advection scheme */
(PID.TID 0000.0001)                   F
(PID.TID 0000.0001)     ;
(PID.TID 0000.0001) PTRACERS_ImplVertAdv = /* implicit vert. advection flag */
(PID.TID 0000.0001)                   F
(PID.TID 0000.0001)     ;
(PID.TID 0000.0001) PTRACERS_diffKh = /* Laplacian Diffusivity */
(PID.TID 0000.0001)                 0.000000000000000E+00
(PID.TID 0000.0001)     ;
(PID.TID 0000.0001) PTRACERS_diffK4 = /* Biharmonic Diffusivity */
(PID.TID 0000.0001)                 0.000000000000000E+00
(PID.TID 0000.0001)     ;
(PID.TID 0000.0001) PTRACERS_diffKrNr = /* Vertical Diffusivity */
(PID.TID 0000.0001)    15 @  1.000000000000000E-05              /* K =  1: 15 */
(PID.TID 0000.0001)     ;
(PID.TID 0000.0001) PTRACERS_useGMRedi = /* apply GM-Redi */
(PID.TID 0000.0001)                   T
(PID.TID 0000.0001)     ;
(PID.TID 0000.0001) PTRACERS_useDWNSLP = /* apply DOWN-SLOPE Flow */
(PID.TID 0000.0001)                   F
(PID.TID 0000.0001)     ;
(PID.TID 0000.0001) PTRACERS_useKPP = /* apply KPP scheme */
(PID.TID 0000.0001)                   F
(PID.TID 0000.0001)     ;
(PID.TID 0000.0001) PTRACERS_ref = /* Reference vertical profile */
(PID.TID 0000.0001)    15 @  0.000000000000000E+00              /* K =  1: 15 */
(PID.TID 0000.0001)     ;
(PID.TID 0000.0001) PTRACERS_EvPrRn =/* tracer conc. in Evap. & Rain */
(PID.TID 0000.0001)                 1.234567000000000E+05
(PID.TID 0000.0001)     ;
(PID.TID 0000.0001)  -----------------------------------
(PID.TID 0000.0001)  tracer number :    5
(PID.TID 0000.0001) PTRACERS_names = /* Tracer short name */
(PID.TID 0000.0001)               'PO4'
(PID.TID 0000.0001)     ;
(PID.TID 0000.0001) PTRACERS_long_names = /* Tracer long name */
(PID.TID 0000.0001)               ''
(PID.TID 0000.0001)     ;
(PID.TID 0000.0001) PTRACERS_ioLabel = /* tracer IO Label */
(PID.TID 0000.0001)               '05'
(PID.TID 0000.0001)     ;
(PID.TID 0000.0001) PTRACERS_advScheme = /* Advection Scheme */
(PID.TID 0000.0001)                      33
(PID.TID 0000.0001)     ;
(PID.TID 0000.0001) PTRACERS_SOM_Advection = /* tracer uses SOM advection scheme */
(PID.TID 0000.0001)                   F
(PID.TID 0000.0001)     ;
(PID.TID 0000.0001) PTRACERS_ImplVertAdv = /* implicit vert. advection flag */
(PID.TID 0000.0001)                   F
(PID.TID 0000.0001)     ;
(PID.TID 0000.0001) PTRACERS_diffKh = /* Laplacian Diffusivity */
(PID.TID 0000.0001)                 0.000000000000000E+00
(PID.TID 0000.0001)     ;
(PID.TID 0000.0001) PTRACERS_diffK4 = /* Biharmonic Diffusivity */
(PID.TID 0000.0001)                 0.000000000000000E+00
(PID.TID 0000.0001)     ;
(PID.TID 0000.0001) PTRACERS_diffKrNr = /* Vertical Diffusivity */
(PID.TID 0000.0001)    15 @  1.000000000000000E-05              /* K =  1: 15 */
(PID.TID 0000.0001)     ;
(PID.TID 0000.0001) PTRACERS_useGMRedi = /* apply GM-Redi */
(PID.TID 0000.0001)                   T
(PID.TID 0000.0001)     ;
(PID.TID 0000.0001) PTRACERS_useDWNSLP = /* apply DOWN-SLOPE Flow */
(PID.TID 0000.0001)                   F
(PID.TID 0000.0001)     ;
(PID.TID 0000.0001) PTRACERS_useKPP = /* apply KPP scheme */
(PID.TID 0000.0001)                   F
(PID.TID 0000.0001)     ;
(PID.TID 0000.0001) PTRACERS_ref = /* Reference vertical profile */
(PID.TID 0000.0001)    15 @  0.000000000000000E+00              /* K =  1: 15 */
(PID.TID 0000.0001)     ;
(PID.TID 0000.0001) PTRACERS_EvPrRn =/* tracer conc. in Evap. & Rain */
(PID.TID 0000.0001)                 1.234567000000000E+05
(PID.TID 0000.0001)     ;
(PID.TID 0000.0001)  -----------------------------------
(PID.TID 0000.0001)  tracer number :    6
(PID.TID 0000.0001) PTRACERS_names = /* Tracer short name */
(PID.TID 0000.0001)               'SiO2'
(PID.TID 0000.0001)     ;
(PID.TID 0000.0001) PTRACERS_long_names = /* Tracer long name */
(PID.TID 0000.0001)               ''
(PID.TID 0000.0001)     ;
(PID.TID 0000.0001) PTRACERS_ioLabel = /* tracer IO Label */
(PID.TID 0000.0001)               '06'
(PID.TID 0000.0001)     ;
(PID.TID 0000.0001) PTRACERS_advScheme = /* Advection Scheme */
(PID.TID 0000.0001)                      33
(PID.TID 0000.0001)     ;
(PID.TID 0000.0001) PTRACERS_SOM_Advection = /* tracer uses SOM advection scheme */
(PID.TID 0000.0001)                   F
(PID.TID 0000.0001)     ;
(PID.TID 0000.0001) PTRACERS_ImplVertAdv = /* implicit vert. advection flag */
(PID.TID 0000.0001)                   F
(PID.TID 0000.0001)     ;
(PID.TID 0000.0001) PTRACERS_diffKh = /* Laplacian Diffusivity */
(PID.TID 0000.0001)                 0.000000000000000E+00
(PID.TID 0000.0001)     ;
(PID.TID 0000.0001) PTRACERS_diffK4 = /* Biharmonic Diffusivity */
(PID.TID 0000.0001)                 0.000000000000000E+00
(PID.TID 0000.0001)     ;
(PID.TID 0000.0001) PTRACERS_diffKrNr = /* Vertical Diffusivity */
(PID.TID 0000.0001)    15 @  1.000000000000000E-05              /* K =  1: 15 */
(PID.TID 0000.0001)     ;
(PID.TID 0000.0001) PTRACERS_useGMRedi = /* apply GM-Redi */
(PID.TID 0000.0001)                   T
(PID.TID 0000.0001)     ;
(PID.TID 0000.0001) PTRACERS_useDWNSLP = /* apply DOWN-SLOPE Flow */
(PID.TID 0000.0001)                   F
(PID.TID 0000.0001)     ;
(PID.TID 0000.0001) PTRACERS_useKPP = /* apply KPP scheme */
(PID.TID 0000.0001)                   F
(PID.TID 0000.0001)     ;
(PID.TID 0000.0001) PTRACERS_ref = /* Reference vertical profile */
(PID.TID 0000.0001)    15 @  0.000000000000000E+00              /* K =  1: 15 */
(PID.TID 0000.0001)     ;
(PID.TID 0000.0001) PTRACERS_EvPrRn =/* tracer conc. in Evap. & Rain */
(PID.TID 0000.0001)                 1.234567000000000E+05
(PID.TID 0000.0001)     ;
(PID.TID 0000.0001)  -----------------------------------
(PID.TID 0000.0001)  tracer number :    7
(PID.TID 0000.0001) PTRACERS_names = /* Tracer short name */
(PID.TID 0000.0001)               'FeT'
(PID.TID 0000.0001)     ;
(PID.TID 0000.0001) PTRACERS_long_names = /* Tracer long name */
(PID.TID 0000.0001)               ''
(PID.TID 0000.0001)     ;
(PID.TID 0000.0001) PTRACERS_ioLabel = /* tracer IO Label */
(PID.TID 0000.0001)               '07'
(PID.TID 0000.0001)     ;
(PID.TID 0000.0001) PTRACERS_advScheme = /* Advection Scheme */
(PID.TID 0000.0001)                      33
(PID.TID 0000.0001)     ;
(PID.TID 0000.0001) PTRACERS_SOM_Advection = /* tracer uses SOM advection scheme */
(PID.TID 0000.0001)                   F
(PID.TID 0000.0001)     ;
(PID.TID 0000.0001) PTRACERS_ImplVertAdv = /* implicit vert. advection flag */
(PID.TID 0000.0001)                   F
(PID.TID 0000.0001)     ;
(PID.TID 0000.0001) PTRACERS_diffKh = /* Laplacian Diffusivity */
(PID.TID 0000.0001)                 0.000000000000000E+00
(PID.TID 0000.0001)     ;
(PID.TID 0000.0001) PTRACERS_diffK4 = /* Biharmonic Diffusivity */
(PID.TID 0000.0001)                 0.000000000000000E+00
(PID.TID 0000.0001)     ;
(PID.TID 0000.0001) PTRACERS_diffKrNr = /* Vertical Diffusivity */
(PID.TID 0000.0001)    15 @  1.000000000000000E-05              /* K =  1: 15 */
(PID.TID 0000.0001)     ;
(PID.TID 0000.0001) PTRACERS_useGMRedi = /* apply GM-Redi */
(PID.TID 0000.0001)                   T
(PID.TID 0000.0001)     ;
(PID.TID 0000.0001) PTRACERS_useDWNSLP = /* apply DOWN-SLOPE Flow */
(PID.TID 0000.0001)                   F
(PID.TID 0000.0001)     ;
(PID.TID 0000.0001) PTRACERS_useKPP = /* apply KPP scheme */
(PID.TID 0000.0001)                   F
(PID.TID 0000.0001)     ;
(PID.TID 0000.0001) PTRACERS_ref = /* Reference vertical profile */
(PID.TID 0000.0001)    15 @  0.000000000000000E+00              /* K =  1: 15 */
(PID.TID 0000.0001)     ;
(PID.TID 0000.0001) PTRACERS_EvPrRn =/* tracer conc. in Evap. & Rain */
(PID.TID 0000.0001)                 1.234567000000000E+05
(PID.TID 0000.0001)     ;
(PID.TID 0000.0001)  -----------------------------------
(PID.TID 0000.0001)  tracer number :    8
(PID.TID 0000.0001) PTRACERS_names = /* Tracer short name */
(PID.TID 0000.0001)               'DOC'
(PID.TID 0000.0001)     ;
(PID.TID 0000.0001) PTRACERS_long_names = /* Tracer long name */
(PID.TID 0000.0001)               ''
(PID.TID 0000.0001)     ;
(PID.TID 0000.0001) PTRACERS_ioLabel = /* tracer IO Label */
(PID.TID 0000.0001)               '08'
(PID.TID 0000.0001)     ;
(PID.TID 0000.0001) PTRACERS_advScheme = /* Advection Scheme */
(PID.TID 0000.0001)                      33
(PID.TID 0000.0001)     ;
(PID.TID 0000.0001) PTRACERS_SOM_Advection = /* tracer uses SOM advection scheme */
(PID.TID 0000.0001)                   F
(PID.TID 0000.0001)     ;
(PID.TID 0000.0001) PTRACERS_ImplVertAdv = /* implicit vert. advection flag */
(PID.TID 0000.0001)                   F
(PID.TID 0000.0001)     ;
(PID.TID 0000.0001) PTRACERS_diffKh = /* Laplacian Diffusivity */
(PID.TID 0000.0001)                 0.000000000000000E+00
(PID.TID 0000.0001)     ;
(PID.TID 0000.0001) PTRACERS_diffK4 = /* Biharmonic Diffusivity */
(PID.TID 0000.0001)                 0.000000000000000E+00
(PID.TID 0000.0001)     ;
(PID.TID 0000.0001) PTRACERS_diffKrNr = /* Vertical Diffusivity */
(PID.TID 0000.0001)    15 @  1.000000000000000E-05              /* K =  1: 15 */
(PID.TID 0000.0001)     ;
(PID.TID 0000.0001) PTRACERS_useGMRedi = /* apply GM-Redi */
(PID.TID 0000.0001)                   T
(PID.TID 0000.0001)     ;
(PID.TID 0000.0001) PTRACERS_useDWNSLP = /* apply DOWN-SLOPE Flow */
(PID.TID 0000.0001)                   F
(PID.TID 0000.0001)     ;
(PID.TID 0000.0001) PTRACERS_useKPP = /* apply KPP scheme */
(PID.TID 0000.0001)                   F
(PID.TID 0000.0001)     ;
(PID.TID 0000.0001) PTRACERS_ref = /* Reference vertical profile */
(PID.TID 0000.0001)    15 @  0.000000000000000E+00              /* K =  1: 15 */
(PID.TID 0000.0001)     ;
(PID.TID 0000.0001) PTRACERS_EvPrRn =/* tracer conc. in Evap. & Rain */
(PID.TID 0000.0001)                 1.234567000000000E+05
(PID.TID 0000.0001)     ;
(PID.TID 0000.0001)  -----------------------------------
(PID.TID 0000.0001)  tracer number :    9
(PID.TID 0000.0001) PTRACERS_names = /* Tracer short name */
(PID.TID 0000.0001)               'DON'
(PID.TID 0000.0001)     ;
(PID.TID 0000.0001) PTRACERS_long_names = /* Tracer long name */
(PID.TID 0000.0001)               ''
(PID.TID 0000.0001)     ;
(PID.TID 0000.0001) PTRACERS_ioLabel = /* tracer IO Label */
(PID.TID 0000.0001)               '09'
(PID.TID 0000.0001)     ;
(PID.TID 0000.0001) PTRACERS_advScheme = /* Advection Scheme */
(PID.TID 0000.0001)                      33
(PID.TID 0000.0001)     ;
(PID.TID 0000.0001) PTRACERS_SOM_Advection = /* tracer uses SOM advection scheme */
(PID.TID 0000.0001)                   F
(PID.TID 0000.0001)     ;
(PID.TID 0000.0001) PTRACERS_ImplVertAdv = /* implicit vert. advection flag */
(PID.TID 0000.0001)                   F
(PID.TID 0000.0001)     ;
(PID.TID 0000.0001) PTRACERS_diffKh = /* Laplacian Diffusivity */
(PID.TID 0000.0001)                 0.000000000000000E+00
(PID.TID 0000.0001)     ;
(PID.TID 0000.0001) PTRACERS_diffK4 = /* Biharmonic Diffusivity */
(PID.TID 0000.0001)                 0.000000000000000E+00
(PID.TID 0000.0001)     ;
(PID.TID 0000.0001) PTRACERS_diffKrNr = /* Vertical Diffusivity */
(PID.TID 0000.0001)    15 @  1.000000000000000E-05              /* K =  1: 15 */
(PID.TID 0000.0001)     ;
(PID.TID 0000.0001) PTRACERS_useGMRedi = /* apply GM-Redi */
(PID.TID 0000.0001)                   T
(PID.TID 0000.0001)     ;
(PID.TID 0000.0001) PTRACERS_useDWNSLP = /* apply DOWN-SLOPE Flow */
(PID.TID 0000.0001)                   F
(PID.TID 0000.0001)     ;
(PID.TID 0000.0001) PTRACERS_useKPP = /* apply KPP scheme */
(PID.TID 0000.0001)                   F
(PID.TID 0000.0001)     ;
(PID.TID 0000.0001) PTRACERS_ref = /* Reference vertical profile */
(PID.TID 0000.0001)    15 @  0.000000000000000E+00              /* K =  1: 15 */
(PID.TID 0000.0001)     ;
(PID.TID 0000.0001) PTRACERS_EvPrRn =/* tracer conc. in Evap. & Rain */
(PID.TID 0000.0001)                 1.234567000000000E+05
(PID.TID 0000.0001)     ;
(PID.TID 0000.0001)  -----------------------------------
(PID.TID 0000.0001)  tracer number :   10
(PID.TID 0000.0001) PTRACERS_names = /* Tracer short name */
(PID.TID 0000.0001)               'DOP'
(PID.TID 0000.0001)     ;
(PID.TID 0000.0001) PTRACERS_long_names = /* Tracer long name */
(PID.TID 0000.0001)               ''
(PID.TID 0000.0001)     ;
(PID.TID 0000.0001) PTRACERS_ioLabel = /* tracer IO Label */
(PID.TID 0000.0001)               '10'
(PID.TID 0000.0001)     ;
(PID.TID 0000.0001) PTRACERS_advScheme = /* Advection Scheme */
(PID.TID 0000.0001)                      33
(PID.TID 0000.0001)     ;
(PID.TID 0000.0001) PTRACERS_SOM_Advection = /* tracer uses SOM advection scheme */
(PID.TID 0000.0001)                   F
(PID.TID 0000.0001)     ;
(PID.TID 0000.0001) PTRACERS_ImplVertAdv = /* implicit vert. advection flag */
(PID.TID 0000.0001)                   F
(PID.TID 0000.0001)     ;
(PID.TID 0000.0001) PTRACERS_diffKh = /* Laplacian Diffusivity */
(PID.TID 0000.0001)                 0.000000000000000E+00
(PID.TID 0000.0001)     ;
(PID.TID 0000.0001) PTRACERS_diffK4 = /* Biharmonic Diffusivity */
(PID.TID 0000.0001)                 0.000000000000000E+00
(PID.TID 0000.0001)     ;
(PID.TID 0000.0001) PTRACERS_diffKrNr = /* Vertical Diffusivity */
(PID.TID 0000.0001)    15 @  1.000000000000000E-05              /* K =  1: 15 */
(PID.TID 0000.0001)     ;
(PID.TID 0000.0001) PTRACERS_useGMRedi = /* apply GM-Redi */
(PID.TID 0000.0001)                   T
(PID.TID 0000.0001)     ;
(PID.TID 0000.0001) PTRACERS_useDWNSLP = /* apply DOWN-SLOPE Flow */
(PID.TID 0000.0001)                   F
(PID.TID 0000.0001)     ;
(PID.TID 0000.0001) PTRACERS_useKPP = /* apply KPP scheme */
(PID.TID 0000.0001)                   F
(PID.TID 0000.0001)     ;
(PID.TID 0000.0001) PTRACERS_ref = /* Reference vertical profile */
(PID.TID 0000.0001)    15 @  0.000000000000000E+00              /* K =  1: 15 */
(PID.TID 0000.0001)     ;
(PID.TID 0000.0001) PTRACERS_EvPrRn =/* tracer conc. in Evap. & Rain */
(PID.TID 0000.0001)                 1.234567000000000E+05
(PID.TID 0000.0001)     ;
(PID.TID 0000.0001)  -----------------------------------
(PID.TID 0000.0001)  tracer number :   11
(PID.TID 0000.0001) PTRACERS_names = /* Tracer short name */
(PID.TID 0000.0001)               'DOFe'
(PID.TID 0000.0001)     ;
(PID.TID 0000.0001) PTRACERS_long_names = /* Tracer long name */
(PID.TID 0000.0001)               ''
(PID.TID 0000.0001)     ;
(PID.TID 0000.0001) PTRACERS_ioLabel = /* tracer IO Label */
(PID.TID 0000.0001)               '11'
(PID.TID 0000.0001)     ;
(PID.TID 0000.0001) PTRACERS_advScheme = /* Advection Scheme */
(PID.TID 0000.0001)                      33
(PID.TID 0000.0001)     ;
(PID.TID 0000.0001) PTRACERS_SOM_Advection = /* tracer uses SOM advection scheme */
(PID.TID 0000.0001)                   F
(PID.TID 0000.0001)     ;
(PID.TID 0000.0001) PTRACERS_ImplVertAdv = /* implicit vert. advection flag */
(PID.TID 0000.0001)                   F
(PID.TID 0000.0001)     ;
(PID.TID 0000.0001) PTRACERS_diffKh = /* Laplacian Diffusivity */
(PID.TID 0000.0001)                 0.000000000000000E+00
(PID.TID 0000.0001)     ;
(PID.TID 0000.0001) PTRACERS_diffK4 = /* Biharmonic Diffusivity */
(PID.TID 0000.0001)                 0.000000000000000E+00
(PID.TID 0000.0001)     ;
(PID.TID 0000.0001) PTRACERS_diffKrNr = /* Vertical Diffusivity */
(PID.TID 0000.0001)    15 @  1.000000000000000E-05              /* K =  1: 15 */
(PID.TID 0000.0001)     ;
(PID.TID 0000.0001) PTRACERS_useGMRedi = /* apply GM-Redi */
(PID.TID 0000.0001)                   T
(PID.TID 0000.0001)     ;
(PID.TID 0000.0001) PTRACERS_useDWNSLP = /* apply DOWN-SLOPE Flow */
(PID.TID 0000.0001)                   F
(PID.TID 0000.0001)     ;
(PID.TID 0000.0001) PTRACERS_useKPP = /* apply KPP scheme */
(PID.TID 0000.0001)                   F
(PID.TID 0000.0001)     ;
(PID.TID 0000.0001) PTRACERS_ref = /* Reference vertical profile */
(PID.TID 0000.0001)    15 @  0.000000000000000E+00              /* K =  1: 15 */
(PID.TID 0000.0001)     ;
(PID.TID 0000.0001) PTRACERS_EvPrRn =/* tracer conc. in Evap. & Rain */
(PID.TID 0000.0001)                 1.234567000000000E+05
(PID.TID 0000.0001)     ;
(PID.TID 0000.0001)  -----------------------------------
(PID.TID 0000.0001)  tracer number :   12
(PID.TID 0000.0001) PTRACERS_names = /* Tracer short name */
(PID.TID 0000.0001)               'POC'
(PID.TID 0000.0001)     ;
(PID.TID 0000.0001) PTRACERS_long_names = /* Tracer long name */
(PID.TID 0000.0001)               ''
(PID.TID 0000.0001)     ;
(PID.TID 0000.0001) PTRACERS_ioLabel = /* tracer IO Label */
(PID.TID 0000.0001)               '12'
(PID.TID 0000.0001)     ;
(PID.TID 0000.0001) PTRACERS_advScheme = /* Advection Scheme */
(PID.TID 0000.0001)                      33
(PID.TID 0000.0001)     ;
(PID.TID 0000.0001) PTRACERS_SOM_Advection = /* tracer uses SOM advection scheme */
(PID.TID 0000.0001)                   F
(PID.TID 0000.0001)     ;
(PID.TID 0000.0001) PTRACERS_ImplVertAdv = /* implicit vert. advection flag */
(PID.TID 0000.0001)                   F
(PID.TID 0000.0001)     ;
(PID.TID 0000.0001) PTRACERS_diffKh = /* Laplacian Diffusivity */
(PID.TID 0000.0001)                 0.000000000000000E+00
(PID.TID 0000.0001)     ;
(PID.TID 0000.0001) PTRACERS_diffK4 = /* Biharmonic Diffusivity */
(PID.TID 0000.0001)                 0.000000000000000E+00
(PID.TID 0000.0001)     ;
(PID.TID 0000.0001) PTRACERS_diffKrNr = /* Vertical Diffusivity */
(PID.TID 0000.0001)    15 @  1.000000000000000E-05              /* K =  1: 15 */
(PID.TID 0000.0001)     ;
(PID.TID 0000.0001) PTRACERS_useGMRedi = /* apply GM-Redi */
(PID.TID 0000.0001)                   T
(PID.TID 0000.0001)     ;
(PID.TID 0000.0001) PTRACERS_useDWNSLP = /* apply DOWN-SLOPE Flow */
(PID.TID 0000.0001)                   F
(PID.TID 0000.0001)     ;
(PID.TID 0000.0001) PTRACERS_useKPP = /* apply KPP scheme */
(PID.TID 0000.0001)                   F
(PID.TID 0000.0001)     ;
(PID.TID 0000.0001) PTRACERS_ref = /* Reference vertical profile */
(PID.TID 0000.0001)    15 @  0.000000000000000E+00              /* K =  1: 15 */
(PID.TID 0000.0001)     ;
(PID.TID 0000.0001) PTRACERS_EvPrRn =/* tracer conc. in Evap. & Rain */
(PID.TID 0000.0001)                 1.234567000000000E+05
(PID.TID 0000.0001)     ;
(PID.TID 0000.0001)  -----------------------------------
(PID.TID 0000.0001)  tracer number :   13
(PID.TID 0000.0001) PTRACERS_names = /* Tracer short name */
(PID.TID 0000.0001)               'PON'
(PID.TID 0000.0001)     ;
(PID.TID 0000.0001) PTRACERS_long_names = /* Tracer long name */
(PID.TID 0000.0001)               ''
(PID.TID 0000.0001)     ;
(PID.TID 0000.0001) PTRACERS_ioLabel = /* tracer IO Label */
(PID.TID 0000.0001)               '13'
(PID.TID 0000.0001)     ;
(PID.TID 0000.0001) PTRACERS_advScheme = /* Advection Scheme */
(PID.TID 0000.0001)                      33
(PID.TID 0000.0001)     ;
(PID.TID 0000.0001) PTRACERS_SOM_Advection = /* tracer uses SOM advection scheme */
(PID.TID 0000.0001)                   F
(PID.TID 0000.0001)     ;
(PID.TID 0000.0001) PTRACERS_ImplVertAdv = /* implicit vert. advection flag */
(PID.TID 0000.0001)                   F
(PID.TID 0000.0001)     ;
(PID.TID 0000.0001) PTRACERS_diffKh = /* Laplacian Diffusivity */
(PID.TID 0000.0001)                 0.000000000000000E+00
(PID.TID 0000.0001)     ;
(PID.TID 0000.0001) PTRACERS_diffK4 = /* Biharmonic Diffusivity */
(PID.TID 0000.0001)                 0.000000000000000E+00
(PID.TID 0000.0001)     ;
(PID.TID 0000.0001) PTRACERS_diffKrNr = /* Vertical Diffusivity */
(PID.TID 0000.0001)    15 @  1.000000000000000E-05              /* K =  1: 15 */
(PID.TID 0000.0001)     ;
(PID.TID 0000.0001) PTRACERS_useGMRedi = /* apply GM-Redi */
(PID.TID 0000.0001)                   T
(PID.TID 0000.0001)     ;
(PID.TID 0000.0001) PTRACERS_useDWNSLP = /* apply DOWN-SLOPE Flow */
(PID.TID 0000.0001)                   F
(PID.TID 0000.0001)     ;
(PID.TID 0000.0001) PTRACERS_useKPP = /* apply KPP scheme */
(PID.TID 0000.0001)                   F
(PID.TID 0000.0001)     ;
(PID.TID 0000.0001) PTRACERS_ref = /* Reference vertical profile */
(PID.TID 0000.0001)    15 @  0.000000000000000E+00              /* K =  1: 15 */
(PID.TID 0000.0001)     ;
(PID.TID 0000.0001) PTRACERS_EvPrRn =/* tracer conc. in Evap. & Rain */
(PID.TID 0000.0001)                 1.234567000000000E+05
(PID.TID 0000.0001)     ;
(PID.TID 0000.0001)  -----------------------------------
(PID.TID 0000.0001)  tracer number :   14
(PID.TID 0000.0001) PTRACERS_names = /* Tracer short name */
(PID.TID 0000.0001)               'POP'
(PID.TID 0000.0001)     ;
(PID.TID 0000.0001) PTRACERS_long_names = /* Tracer long name */
(PID.TID 0000.0001)               ''
(PID.TID 0000.0001)     ;
(PID.TID 0000.0001) PTRACERS_ioLabel = /* tracer IO Label */
(PID.TID 0000.0001)               '14'
(PID.TID 0000.0001)     ;
(PID.TID 0000.0001) PTRACERS_advScheme = /* Advection Scheme */
(PID.TID 0000.0001)                      33
(PID.TID 0000.0001)     ;
(PID.TID 0000.0001) PTRACERS_SOM_Advection = /* tracer uses SOM advection scheme */
(PID.TID 0000.0001)                   F
(PID.TID 0000.0001)     ;
(PID.TID 0000.0001) PTRACERS_ImplVertAdv = /* implicit vert. advection flag */
(PID.TID 0000.0001)                   F
(PID.TID 0000.0001)     ;
(PID.TID 0000.0001) PTRACERS_diffKh = /* Laplacian Diffusivity */
(PID.TID 0000.0001)                 0.000000000000000E+00
(PID.TID 0000.0001)     ;
(PID.TID 0000.0001) PTRACERS_diffK4 = /* Biharmonic Diffusivity */
(PID.TID 0000.0001)                 0.000000000000000E+00
(PID.TID 0000.0001)     ;
(PID.TID 0000.0001) PTRACERS_diffKrNr = /* Vertical Diffusivity */
(PID.TID 0000.0001)    15 @  1.000000000000000E-05              /* K =  1: 15 */
(PID.TID 0000.0001)     ;
(PID.TID 0000.0001) PTRACERS_useGMRedi = /* apply GM-Redi */
(PID.TID 0000.0001)                   T
(PID.TID 0000.0001)     ;
(PID.TID 0000.0001) PTRACERS_useDWNSLP = /* apply DOWN-SLOPE Flow */
(PID.TID 0000.0001)                   F
(PID.TID 0000.0001)     ;
(PID.TID 0000.0001) PTRACERS_useKPP = /* apply KPP scheme */
(PID.TID 0000.0001)                   F
(PID.TID 0000.0001)     ;
(PID.TID 0000.0001) PTRACERS_ref = /* Reference vertical profile */
(PID.TID 0000.0001)    15 @  0.000000000000000E+00              /* K =  1: 15 */
(PID.TID 0000.0001)     ;
(PID.TID 0000.0001) PTRACERS_EvPrRn =/* tracer conc. in Evap. & Rain */
(PID.TID 0000.0001)                 1.234567000000000E+05
(PID.TID 0000.0001)     ;
(PID.TID 0000.0001)  -----------------------------------
(PID.TID 0000.0001)  tracer number :   15
(PID.TID 0000.0001) PTRACERS_names = /* Tracer short name */
(PID.TID 0000.0001)               'POSi'
(PID.TID 0000.0001)     ;
(PID.TID 0000.0001) PTRACERS_long_names = /* Tracer long name */
(PID.TID 0000.0001)               ''
(PID.TID 0000.0001)     ;
(PID.TID 0000.0001) PTRACERS_ioLabel = /* tracer IO Label */
(PID.TID 0000.0001)               '15'
(PID.TID 0000.0001)     ;
(PID.TID 0000.0001) PTRACERS_advScheme = /* Advection Scheme */
(PID.TID 0000.0001)                      33
(PID.TID 0000.0001)     ;
(PID.TID 0000.0001) PTRACERS_SOM_Advection = /* tracer uses SOM advection scheme */
(PID.TID 0000.0001)                   F
(PID.TID 0000.0001)     ;
(PID.TID 0000.0001) PTRACERS_ImplVertAdv = /* implicit vert. advection flag */
(PID.TID 0000.0001)                   F
(PID.TID 0000.0001)     ;
(PID.TID 0000.0001) PTRACERS_diffKh = /* Laplacian Diffusivity */
(PID.TID 0000.0001)                 0.000000000000000E+00
(PID.TID 0000.0001)     ;
(PID.TID 0000.0001) PTRACERS_diffK4 = /* Biharmonic Diffusivity */
(PID.TID 0000.0001)                 0.000000000000000E+00
(PID.TID 0000.0001)     ;
(PID.TID 0000.0001) PTRACERS_diffKrNr = /* Vertical Diffusivity */
(PID.TID 0000.0001)    15 @  1.000000000000000E-05              /* K =  1: 15 */
(PID.TID 0000.0001)     ;
(PID.TID 0000.0001) PTRACERS_useGMRedi = /* apply GM-Redi */
(PID.TID 0000.0001)                   T
(PID.TID 0000.0001)     ;
(PID.TID 0000.0001) PTRACERS_useDWNSLP = /* apply DOWN-SLOPE Flow */
(PID.TID 0000.0001)                   F
(PID.TID 0000.0001)     ;
(PID.TID 0000.0001) PTRACERS_useKPP = /* apply KPP scheme */
(PID.TID 0000.0001)                   F
(PID.TID 0000.0001)     ;
(PID.TID 0000.0001) PTRACERS_ref = /* Reference vertical profile */
(PID.TID 0000.0001)    15 @  0.000000000000000E+00              /* K =  1: 15 */
(PID.TID 0000.0001)     ;
(PID.TID 0000.0001) PTRACERS_EvPrRn =/* tracer conc. in Evap. & Rain */
(PID.TID 0000.0001)                 1.234567000000000E+05
(PID.TID 0000.0001)     ;
(PID.TID 0000.0001)  -----------------------------------
(PID.TID 0000.0001)  tracer number :   16
(PID.TID 0000.0001) PTRACERS_names = /* Tracer short name */
(PID.TID 0000.0001)               'POFe'
(PID.TID 0000.0001)     ;
(PID.TID 0000.0001) PTRACERS_long_names = /* Tracer long name */
(PID.TID 0000.0001)               ''
(PID.TID 0000.0001)     ;
(PID.TID 0000.0001) PTRACERS_ioLabel = /* tracer IO Label */
(PID.TID 0000.0001)               '16'
(PID.TID 0000.0001)     ;
(PID.TID 0000.0001) PTRACERS_advScheme = /* Advection Scheme */
(PID.TID 0000.0001)                      33
(PID.TID 0000.0001)     ;
(PID.TID 0000.0001) PTRACERS_SOM_Advection = /* tracer uses SOM advection scheme */
(PID.TID 0000.0001)                   F
(PID.TID 0000.0001)     ;
(PID.TID 0000.0001) PTRACERS_ImplVertAdv = /* implicit vert. advection flag */
(PID.TID 0000.0001)                   F
(PID.TID 0000.0001)     ;
(PID.TID 0000.0001) PTRACERS_diffKh = /* Laplacian Diffusivity */
(PID.TID 0000.0001)                 0.000000000000000E+00
(PID.TID 0000.0001)     ;
(PID.TID 0000.0001) PTRACERS_diffK4 = /* Biharmonic Diffusivity */
(PID.TID 0000.0001)                 0.000000000000000E+00
(PID.TID 0000.0001)     ;
(PID.TID 0000.0001) PTRACERS_diffKrNr = /* Vertical Diffusivity */
(PID.TID 0000.0001)    15 @  1.000000000000000E-05              /* K =  1: 15 */
(PID.TID 0000.0001)     ;
(PID.TID 0000.0001) PTRACERS_useGMRedi = /* apply GM-Redi */
(PID.TID 0000.0001)                   T
(PID.TID 0000.0001)     ;
(PID.TID 0000.0001) PTRACERS_useDWNSLP = /* apply DOWN-SLOPE Flow */
(PID.TID 0000.0001)                   F
(PID.TID 0000.0001)     ;
(PID.TID 0000.0001) PTRACERS_useKPP = /* apply KPP scheme */
(PID.TID 0000.0001)                   F
(PID.TID 0000.0001)     ;
(PID.TID 0000.0001) PTRACERS_ref = /* Reference vertical profile */
(PID.TID 0000.0001)    15 @  0.000000000000000E+00              /* K =  1: 15 */
(PID.TID 0000.0001)     ;
(PID.TID 0000.0001) PTRACERS_EvPrRn =/* tracer conc. in Evap. & Rain */
(PID.TID 0000.0001)                 1.234567000000000E+05
(PID.TID 0000.0001)     ;
(PID.TID 0000.0001)  -----------------------------------
(PID.TID 0000.0001)  tracer number :   17
(PID.TID 0000.0001) PTRACERS_names = /* Tracer short name */
(PID.TID 0000.0001)               'PIC'
(PID.TID 0000.0001)     ;
(PID.TID 0000.0001) PTRACERS_long_names = /* Tracer long name */
(PID.TID 0000.0001)               ''
(PID.TID 0000.0001)     ;
(PID.TID 0000.0001) PTRACERS_ioLabel = /* tracer IO Label */
(PID.TID 0000.0001)               '17'
(PID.TID 0000.0001)     ;
(PID.TID 0000.0001) PTRACERS_advScheme = /* Advection Scheme */
(PID.TID 0000.0001)                      33
(PID.TID 0000.0001)     ;
(PID.TID 0000.0001) PTRACERS_SOM_Advection = /* tracer uses SOM advection scheme */
(PID.TID 0000.0001)                   F
(PID.TID 0000.0001)     ;
(PID.TID 0000.0001) PTRACERS_ImplVertAdv = /* implicit vert. advection flag */
(PID.TID 0000.0001)                   F
(PID.TID 0000.0001)     ;
(PID.TID 0000.0001) PTRACERS_diffKh = /* Laplacian Diffusivity */
(PID.TID 0000.0001)                 0.000000000000000E+00
(PID.TID 0000.0001)     ;
(PID.TID 0000.0001) PTRACERS_diffK4 = /* Biharmonic Diffusivity */
(PID.TID 0000.0001)                 0.000000000000000E+00
(PID.TID 0000.0001)     ;
(PID.TID 0000.0001) PTRACERS_diffKrNr = /* Vertical Diffusivity */
(PID.TID 0000.0001)    15 @  1.000000000000000E-05              /* K =  1: 15 */
(PID.TID 0000.0001)     ;
(PID.TID 0000.0001) PTRACERS_useGMRedi = /* apply GM-Redi */
(PID.TID 0000.0001)                   T
(PID.TID 0000.0001)     ;
(PID.TID 0000.0001) PTRACERS_useDWNSLP = /* apply DOWN-SLOPE Flow */
(PID.TID 0000.0001)                   F
(PID.TID 0000.0001)     ;
(PID.TID 0000.0001) PTRACERS_useKPP = /* apply KPP scheme */
(PID.TID 0000.0001)                   F
(PID.TID 0000.0001)     ;
(PID.TID 0000.0001) PTRACERS_ref = /* Reference vertical profile */
(PID.TID 0000.0001)    15 @  0.000000000000000E+00              /* K =  1: 15 */
(PID.TID 0000.0001)     ;
(PID.TID 0000.0001) PTRACERS_EvPrRn =/* tracer conc. in Evap. & Rain */
(PID.TID 0000.0001)                 1.234567000000000E+05
(PID.TID 0000.0001)     ;
(PID.TID 0000.0001)  -----------------------------------
(PID.TID 0000.0001)  tracer number :   18
(PID.TID 0000.0001) PTRACERS_names = /* Tracer short name */
(PID.TID 0000.0001)               'c01'
(PID.TID 0000.0001)     ;
(PID.TID 0000.0001) PTRACERS_long_names = /* Tracer long name */
(PID.TID 0000.0001)               ''
(PID.TID 0000.0001)     ;
(PID.TID 0000.0001) PTRACERS_ioLabel = /* tracer IO Label */
(PID.TID 0000.0001)               '18'
(PID.TID 0000.0001)     ;
(PID.TID 0000.0001) PTRACERS_advScheme = /* Advection Scheme */
(PID.TID 0000.0001)                      33
(PID.TID 0000.0001)     ;
(PID.TID 0000.0001) PTRACERS_SOM_Advection = /* tracer uses SOM advection scheme */
(PID.TID 0000.0001)                   F
(PID.TID 0000.0001)     ;
(PID.TID 0000.0001) PTRACERS_ImplVertAdv = /* implicit vert. advection flag */
(PID.TID 0000.0001)                   F
(PID.TID 0000.0001)     ;
(PID.TID 0000.0001) PTRACERS_diffKh = /* Laplacian Diffusivity */
(PID.TID 0000.0001)                 0.000000000000000E+00
(PID.TID 0000.0001)     ;
(PID.TID 0000.0001) PTRACERS_diffK4 = /* Biharmonic Diffusivity */
(PID.TID 0000.0001)                 0.000000000000000E+00
(PID.TID 0000.0001)     ;
(PID.TID 0000.0001) PTRACERS_diffKrNr = /* Vertical Diffusivity */
(PID.TID 0000.0001)    15 @  1.000000000000000E-05              /* K =  1: 15 */
(PID.TID 0000.0001)     ;
(PID.TID 0000.0001) PTRACERS_useGMRedi = /* apply GM-Redi */
(PID.TID 0000.0001)                   T
(PID.TID 0000.0001)     ;
(PID.TID 0000.0001) PTRACERS_useDWNSLP = /* apply DOWN-SLOPE Flow */
(PID.TID 0000.0001)                   F
(PID.TID 0000.0001)     ;
(PID.TID 0000.0001) PTRACERS_useKPP = /* apply KPP scheme */
(PID.TID 0000.0001)                   F
(PID.TID 0000.0001)     ;
(PID.TID 0000.0001) PTRACERS_ref = /* Reference vertical profile */
(PID.TID 0000.0001)    15 @  0.000000000000000E+00              /* K =  1: 15 */
(PID.TID 0000.0001)     ;
(PID.TID 0000.0001) PTRACERS_EvPrRn =/* tracer conc. in Evap. & Rain */
(PID.TID 0000.0001)                 1.234567000000000E+05
(PID.TID 0000.0001)     ;
(PID.TID 0000.0001)  -----------------------------------
(PID.TID 0000.0001)  tracer number :   19
(PID.TID 0000.0001) PTRACERS_names = /* Tracer short name */
(PID.TID 0000.0001)               'c02'
(PID.TID 0000.0001)     ;
(PID.TID 0000.0001) PTRACERS_long_names = /* Tracer long name */
(PID.TID 0000.0001)               ''
(PID.TID 0000.0001)     ;
(PID.TID 0000.0001) PTRACERS_ioLabel = /* tracer IO Label */
(PID.TID 0000.0001)               '19'
(PID.TID 0000.0001)     ;
(PID.TID 0000.0001) PTRACERS_advScheme = /* Advection Scheme */
(PID.TID 0000.0001)                      33
(PID.TID 0000.0001)     ;
(PID.TID 0000.0001) PTRACERS_SOM_Advection = /* tracer uses SOM advection scheme */
(PID.TID 0000.0001)                   F
(PID.TID 0000.0001)     ;
(PID.TID 0000.0001) PTRACERS_ImplVertAdv = /* implicit vert. advection flag */
(PID.TID 0000.0001)                   F
(PID.TID 0000.0001)     ;
(PID.TID 0000.0001) PTRACERS_diffKh = /* Laplacian Diffusivity */
(PID.TID 0000.0001)                 0.000000000000000E+00
(PID.TID 0000.0001)     ;
(PID.TID 0000.0001) PTRACERS_diffK4 = /* Biharmonic Diffusivity */
(PID.TID 0000.0001)                 0.000000000000000E+00
(PID.TID 0000.0001)     ;
(PID.TID 0000.0001) PTRACERS_diffKrNr = /* Vertical Diffusivity */
(PID.TID 0000.0001)    15 @  1.000000000000000E-05              /* K =  1: 15 */
(PID.TID 0000.0001)     ;
(PID.TID 0000.0001) PTRACERS_useGMRedi = /* apply GM-Redi */
(PID.TID 0000.0001)                   T
(PID.TID 0000.0001)     ;
(PID.TID 0000.0001) PTRACERS_useDWNSLP = /* apply DOWN-SLOPE Flow */
(PID.TID 0000.0001)                   F
(PID.TID 0000.0001)     ;
(PID.TID 0000.0001) PTRACERS_useKPP = /* apply KPP scheme */
(PID.TID 0000.0001)                   F
(PID.TID 0000.0001)     ;
(PID.TID 0000.0001) PTRACERS_ref = /* Reference vertical profile */
(PID.TID 0000.0001)    15 @  0.000000000000000E+00              /* K =  1: 15 */
(PID.TID 0000.0001)     ;
(PID.TID 0000.0001) PTRACERS_EvPrRn =/* tracer conc. in Evap. & Rain */
(PID.TID 0000.0001)                 1.234567000000000E+05
(PID.TID 0000.0001)     ;
(PID.TID 0000.0001)  -----------------------------------
(PID.TID 0000.0001)  tracer number :   20
(PID.TID 0000.0001) PTRACERS_names = /* Tracer short name */
(PID.TID 0000.0001)               'c03'
(PID.TID 0000.0001)     ;
(PID.TID 0000.0001) PTRACERS_long_names = /* Tracer long name */
(PID.TID 0000.0001)               ''
(PID.TID 0000.0001)     ;
(PID.TID 0000.0001) PTRACERS_ioLabel = /* tracer IO Label */
(PID.TID 0000.0001)               '20'
(PID.TID 0000.0001)     ;
(PID.TID 0000.0001) PTRACERS_advScheme = /* Advection Scheme */
(PID.TID 0000.0001)                      33
(PID.TID 0000.0001)     ;
(PID.TID 0000.0001) PTRACERS_SOM_Advection = /* tracer uses SOM advection scheme */
(PID.TID 0000.0001)                   F
(PID.TID 0000.0001)     ;
(PID.TID 0000.0001) PTRACERS_ImplVertAdv = /* implicit vert. advection flag */
(PID.TID 0000.0001)                   F
(PID.TID 0000.0001)     ;
(PID.TID 0000.0001) PTRACERS_diffKh = /* Laplacian Diffusivity */
(PID.TID 0000.0001)                 0.000000000000000E+00
(PID.TID 0000.0001)     ;
(PID.TID 0000.0001) PTRACERS_diffK4 = /* Biharmonic Diffusivity */
(PID.TID 0000.0001)                 0.000000000000000E+00
(PID.TID 0000.0001)     ;
(PID.TID 0000.0001) PTRACERS_diffKrNr = /* Vertical Diffusivity */
(PID.TID 0000.0001)    15 @  1.000000000000000E-05              /* K =  1: 15 */
(PID.TID 0000.0001)     ;
(PID.TID 0000.0001) PTRACERS_useGMRedi = /* apply GM-Redi */
(PID.TID 0000.0001)                   T
(PID.TID 0000.0001)     ;
(PID.TID 0000.0001) PTRACERS_useDWNSLP = /* apply DOWN-SLOPE Flow */
(PID.TID 0000.0001)                   F
(PID.TID 0000.0001)     ;
(PID.TID 0000.0001) PTRACERS_useKPP = /* apply KPP scheme */
(PID.TID 0000.0001)                   F
(PID.TID 0000.0001)     ;
(PID.TID 0000.0001) PTRACERS_ref = /* Reference vertical profile */
(PID.TID 0000.0001)    15 @  0.000000000000000E+00              /* K =  1: 15 */
(PID.TID 0000.0001)     ;
(PID.TID 0000.0001) PTRACERS_EvPrRn =/* tracer conc. in Evap. & Rain */
(PID.TID 0000.0001)                 1.234567000000000E+05
(PID.TID 0000.0001)     ;
(PID.TID 0000.0001)  -----------------------------------
(PID.TID 0000.0001)  tracer number :   21
(PID.TID 0000.0001) PTRACERS_names = /* Tracer short name */
(PID.TID 0000.0001)               'c04'
(PID.TID 0000.0001)     ;
(PID.TID 0000.0001) PTRACERS_long_names = /* Tracer long name */
(PID.TID 0000.0001)               ''
(PID.TID 0000.0001)     ;
(PID.TID 0000.0001) PTRACERS_ioLabel = /* tracer IO Label */
(PID.TID 0000.0001)               '21'
(PID.TID 0000.0001)     ;
(PID.TID 0000.0001) PTRACERS_advScheme = /* Advection Scheme */
(PID.TID 0000.0001)                      33
(PID.TID 0000.0001)     ;
(PID.TID 0000.0001) PTRACERS_SOM_Advection = /* tracer uses SOM advection scheme */
(PID.TID 0000.0001)                   F
(PID.TID 0000.0001)     ;
(PID.TID 0000.0001) PTRACERS_ImplVertAdv = /* implicit vert. advection flag */
(PID.TID 0000.0001)                   F
(PID.TID 0000.0001)     ;
(PID.TID 0000.0001) PTRACERS_diffKh = /* Laplacian Diffusivity */
(PID.TID 0000.0001)                 0.000000000000000E+00
(PID.TID 0000.0001)     ;
(PID.TID 0000.0001) PTRACERS_diffK4 = /* Biharmonic Diffusivity */
(PID.TID 0000.0001)                 0.000000000000000E+00
(PID.TID 0000.0001)     ;
(PID.TID 0000.0001) PTRACERS_diffKrNr = /* Vertical Diffusivity */
(PID.TID 0000.0001)    15 @  1.000000000000000E-05              /* K =  1: 15 */
(PID.TID 0000.0001)     ;
(PID.TID 0000.0001) PTRACERS_useGMRedi = /* apply GM-Redi */
(PID.TID 0000.0001)                   T
(PID.TID 0000.0001)     ;
(PID.TID 0000.0001) PTRACERS_useDWNSLP = /* apply DOWN-SLOPE Flow */
(PID.TID 0000.0001)                   F
(PID.TID 0000.0001)     ;
(PID.TID 0000.0001) PTRACERS_useKPP = /* apply KPP scheme */
(PID.TID 0000.0001)                   F
(PID.TID 0000.0001)     ;
(PID.TID 0000.0001) PTRACERS_ref = /* Reference vertical profile */
(PID.TID 0000.0001)    15 @  0.000000000000000E+00              /* K =  1: 15 */
(PID.TID 0000.0001)     ;
(PID.TID 0000.0001) PTRACERS_EvPrRn =/* tracer conc. in Evap. & Rain */
(PID.TID 0000.0001)                 1.234567000000000E+05
(PID.TID 0000.0001)     ;
(PID.TID 0000.0001)  -----------------------------------
(PID.TID 0000.0001)  tracer number :   22
(PID.TID 0000.0001) PTRACERS_names = /* Tracer short name */
(PID.TID 0000.0001)               'c05'
(PID.TID 0000.0001)     ;
(PID.TID 0000.0001) PTRACERS_long_names = /* Tracer long name */
(PID.TID 0000.0001)               ''
(PID.TID 0000.0001)     ;
(PID.TID 0000.0001) PTRACERS_ioLabel = /* tracer IO Label */
(PID.TID 0000.0001)               '22'
(PID.TID 0000.0001)     ;
(PID.TID 0000.0001) PTRACERS_advScheme = /* Advection Scheme */
(PID.TID 0000.0001)                      33
(PID.TID 0000.0001)     ;
(PID.TID 0000.0001) PTRACERS_SOM_Advection = /* tracer uses SOM advection scheme */
(PID.TID 0000.0001)                   F
(PID.TID 0000.0001)     ;
(PID.TID 0000.0001) PTRACERS_ImplVertAdv = /* implicit vert. advection flag */
(PID.TID 0000.0001)                   F
(PID.TID 0000.0001)     ;
(PID.TID 0000.0001) PTRACERS_diffKh = /* Laplacian Diffusivity */
(PID.TID 0000.0001)                 0.000000000000000E+00
(PID.TID 0000.0001)     ;
(PID.TID 0000.0001) PTRACERS_diffK4 = /* Biharmonic Diffusivity */
(PID.TID 0000.0001)                 0.000000000000000E+00
(PID.TID 0000.0001)     ;
(PID.TID 0000.0001) PTRACERS_diffKrNr = /* Vertical Diffusivity */
(PID.TID 0000.0001)    15 @  1.000000000000000E-05              /* K =  1: 15 */
(PID.TID 0000.0001)     ;
(PID.TID 0000.0001) PTRACERS_useGMRedi = /* apply GM-Redi */
(PID.TID 0000.0001)                   T
(PID.TID 0000.0001)     ;
(PID.TID 0000.0001) PTRACERS_useDWNSLP = /* apply DOWN-SLOPE Flow */
(PID.TID 0000.0001)                   F
(PID.TID 0000.0001)     ;
(PID.TID 0000.0001) PTRACERS_useKPP = /* apply KPP scheme */
(PID.TID 0000.0001)                   F
(PID.TID 0000.0001)     ;
(PID.TID 0000.0001) PTRACERS_ref = /* Reference vertical profile */
(PID.TID 0000.0001)    15 @  0.000000000000000E+00              /* K =  1: 15 */
(PID.TID 0000.0001)     ;
(PID.TID 0000.0001) PTRACERS_EvPrRn =/* tracer conc. in Evap. & Rain */
(PID.TID 0000.0001)                 1.234567000000000E+05
(PID.TID 0000.0001)     ;
(PID.TID 0000.0001)  -----------------------------------
(PID.TID 0000.0001)  tracer number :   23
(PID.TID 0000.0001) PTRACERS_names = /* Tracer short name */
(PID.TID 0000.0001)               'c06'
(PID.TID 0000.0001)     ;
(PID.TID 0000.0001) PTRACERS_long_names = /* Tracer long name */
(PID.TID 0000.0001)               ''
(PID.TID 0000.0001)     ;
(PID.TID 0000.0001) PTRACERS_ioLabel = /* tracer IO Label */
(PID.TID 0000.0001)               '23'
(PID.TID 0000.0001)     ;
(PID.TID 0000.0001) PTRACERS_advScheme = /* Advection Scheme */
(PID.TID 0000.0001)                      33
(PID.TID 0000.0001)     ;
(PID.TID 0000.0001) PTRACERS_SOM_Advection = /* tracer uses SOM advection scheme */
(PID.TID 0000.0001)                   F
(PID.TID 0000.0001)     ;
(PID.TID 0000.0001) PTRACERS_ImplVertAdv = /* implicit vert. advection flag */
(PID.TID 0000.0001)                   F
(PID.TID 0000.0001)     ;
(PID.TID 0000.0001) PTRACERS_diffKh = /* Laplacian Diffusivity */
(PID.TID 0000.0001)                 0.000000000000000E+00
(PID.TID 0000.0001)     ;
(PID.TID 0000.0001) PTRACERS_diffK4 = /* Biharmonic Diffusivity */
(PID.TID 0000.0001)                 0.000000000000000E+00
(PID.TID 0000.0001)     ;
(PID.TID 0000.0001) PTRACERS_diffKrNr = /* Vertical Diffusivity */
(PID.TID 0000.0001)    15 @  1.000000000000000E-05              /* K =  1: 15 */
(PID.TID 0000.0001)     ;
(PID.TID 0000.0001) PTRACERS_useGMRedi = /* apply GM-Redi */
(PID.TID 0000.0001)                   T
(PID.TID 0000.0001)     ;
(PID.TID 0000.0001) PTRACERS_useDWNSLP = /* apply DOWN-SLOPE Flow */
(PID.TID 0000.0001)                   F
(PID.TID 0000.0001)     ;
(PID.TID 0000.0001) PTRACERS_useKPP = /* apply KPP scheme */
(PID.TID 0000.0001)                   F
(PID.TID 0000.0001)     ;
(PID.TID 0000.0001) PTRACERS_ref = /* Reference vertical profile */
(PID.TID 0000.0001)    15 @  0.000000000000000E+00              /* K =  1: 15 */
(PID.TID 0000.0001)     ;
(PID.TID 0000.0001) PTRACERS_EvPrRn =/* tracer conc. in Evap. & Rain */
(PID.TID 0000.0001)                 1.234567000000000E+05
(PID.TID 0000.0001)     ;
(PID.TID 0000.0001)  -----------------------------------
(PID.TID 0000.0001)  tracer number :   24
(PID.TID 0000.0001) PTRACERS_names = /* Tracer short name */
(PID.TID 0000.0001)               'c07'
(PID.TID 0000.0001)     ;
(PID.TID 0000.0001) PTRACERS_long_names = /* Tracer long name */
(PID.TID 0000.0001)               ''
(PID.TID 0000.0001)     ;
(PID.TID 0000.0001) PTRACERS_ioLabel = /* tracer IO Label */
(PID.TID 0000.0001)               '24'
(PID.TID 0000.0001)     ;
(PID.TID 0000.0001) PTRACERS_advScheme = /* Advection Scheme */
(PID.TID 0000.0001)                      33
(PID.TID 0000.0001)     ;
(PID.TID 0000.0001) PTRACERS_SOM_Advection = /* tracer uses SOM advection scheme */
(PID.TID 0000.0001)                   F
(PID.TID 0000.0001)     ;
(PID.TID 0000.0001) PTRACERS_ImplVertAdv = /* implicit vert. advection flag */
(PID.TID 0000.0001)                   F
(PID.TID 0000.0001)     ;
(PID.TID 0000.0001) PTRACERS_diffKh = /* Laplacian Diffusivity */
(PID.TID 0000.0001)                 0.000000000000000E+00
(PID.TID 0000.0001)     ;
(PID.TID 0000.0001) PTRACERS_diffK4 = /* Biharmonic Diffusivity */
(PID.TID 0000.0001)                 0.000000000000000E+00
(PID.TID 0000.0001)     ;
(PID.TID 0000.0001) PTRACERS_diffKrNr = /* Vertical Diffusivity */
(PID.TID 0000.0001)    15 @  1.000000000000000E-05              /* K =  1: 15 */
(PID.TID 0000.0001)     ;
(PID.TID 0000.0001) PTRACERS_useGMRedi = /* apply GM-Redi */
(PID.TID 0000.0001)                   T
(PID.TID 0000.0001)     ;
(PID.TID 0000.0001) PTRACERS_useDWNSLP = /* apply DOWN-SLOPE Flow */
(PID.TID 0000.0001)                   F
(PID.TID 0000.0001)     ;
(PID.TID 0000.0001) PTRACERS_useKPP = /* apply KPP scheme */
(PID.TID 0000.0001)                   F
(PID.TID 0000.0001)     ;
(PID.TID 0000.0001) PTRACERS_ref = /* Reference vertical profile */
(PID.TID 0000.0001)    15 @  0.000000000000000E+00              /* K =  1: 15 */
(PID.TID 0000.0001)     ;
(PID.TID 0000.0001) PTRACERS_EvPrRn =/* tracer conc. in Evap. & Rain */
(PID.TID 0000.0001)                 1.234567000000000E+05
(PID.TID 0000.0001)     ;
(PID.TID 0000.0001)  -----------------------------------
(PID.TID 0000.0001)  tracer number :   25
(PID.TID 0000.0001) PTRACERS_names = /* Tracer short name */
(PID.TID 0000.0001)               'c08'
(PID.TID 0000.0001)     ;
(PID.TID 0000.0001) PTRACERS_long_names = /* Tracer long name */
(PID.TID 0000.0001)               ''
(PID.TID 0000.0001)     ;
(PID.TID 0000.0001) PTRACERS_ioLabel = /* tracer IO Label */
(PID.TID 0000.0001)               '25'
(PID.TID 0000.0001)     ;
(PID.TID 0000.0001) PTRACERS_advScheme = /* Advection Scheme */
(PID.TID 0000.0001)                      33
(PID.TID 0000.0001)     ;
(PID.TID 0000.0001) PTRACERS_SOM_Advection = /* tracer uses SOM advection scheme */
(PID.TID 0000.0001)                   F
(PID.TID 0000.0001)     ;
(PID.TID 0000.0001) PTRACERS_ImplVertAdv = /* implicit vert. advection flag */
(PID.TID 0000.0001)                   F
(PID.TID 0000.0001)     ;
(PID.TID 0000.0001) PTRACERS_diffKh = /* Laplacian Diffusivity */
(PID.TID 0000.0001)                 0.000000000000000E+00
(PID.TID 0000.0001)     ;
(PID.TID 0000.0001) PTRACERS_diffK4 = /* Biharmonic Diffusivity */
(PID.TID 0000.0001)                 0.000000000000000E+00
(PID.TID 0000.0001)     ;
(PID.TID 0000.0001) PTRACERS_diffKrNr = /* Vertical Diffusivity */
(PID.TID 0000.0001)    15 @  1.000000000000000E-05              /* K =  1: 15 */
(PID.TID 0000.0001)     ;
(PID.TID 0000.0001) PTRACERS_useGMRedi = /* apply GM-Redi */
(PID.TID 0000.0001)                   T
(PID.TID 0000.0001)     ;
(PID.TID 0000.0001) PTRACERS_useDWNSLP = /* apply DOWN-SLOPE Flow */
(PID.TID 0000.0001)                   F
(PID.TID 0000.0001)     ;
(PID.TID 0000.0001) PTRACERS_useKPP = /* apply KPP scheme */
(PID.TID 0000.0001)                   F
(PID.TID 0000.0001)     ;
(PID.TID 0000.0001) PTRACERS_ref = /* Reference vertical profile */
(PID.TID 0000.0001)    15 @  0.000000000000000E+00              /* K =  1: 15 */
(PID.TID 0000.0001)     ;
(PID.TID 0000.0001) PTRACERS_EvPrRn =/* tracer conc. in Evap. & Rain */
(PID.TID 0000.0001)                 1.234567000000000E+05
(PID.TID 0000.0001)     ;
(PID.TID 0000.0001)  -----------------------------------
(PID.TID 0000.0001)  tracer number :   26
(PID.TID 0000.0001) PTRACERS_names = /* Tracer short name */
(PID.TID 0000.0001)               'c09'
(PID.TID 0000.0001)     ;
(PID.TID 0000.0001) PTRACERS_long_names = /* Tracer long name */
(PID.TID 0000.0001)               ''
(PID.TID 0000.0001)     ;
(PID.TID 0000.0001) PTRACERS_ioLabel = /* tracer IO Label */
(PID.TID 0000.0001)               '26'
(PID.TID 0000.0001)     ;
(PID.TID 0000.0001) PTRACERS_advScheme = /* Advection Scheme */
(PID.TID 0000.0001)                      33
(PID.TID 0000.0001)     ;
(PID.TID 0000.0001) PTRACERS_SOM_Advection = /* tracer uses SOM advection scheme */
(PID.TID 0000.0001)                   F
(PID.TID 0000.0001)     ;
(PID.TID 0000.0001) PTRACERS_ImplVertAdv = /* implicit vert. advection flag */
(PID.TID 0000.0001)                   F
(PID.TID 0000.0001)     ;
(PID.TID 0000.0001) PTRACERS_diffKh = /* Laplacian Diffusivity */
(PID.TID 0000.0001)                 0.000000000000000E+00
(PID.TID 0000.0001)     ;
(PID.TID 0000.0001) PTRACERS_diffK4 = /* Biharmonic Diffusivity */
(PID.TID 0000.0001)                 0.000000000000000E+00
(PID.TID 0000.0001)     ;
(PID.TID 0000.0001) PTRACERS_diffKrNr = /* Vertical Diffusivity */
(PID.TID 0000.0001)    15 @  1.000000000000000E-05              /* K =  1: 15 */
(PID.TID 0000.0001)     ;
(PID.TID 0000.0001) PTRACERS_useGMRedi = /* apply GM-Redi */
(PID.TID 0000.0001)                   T
(PID.TID 0000.0001)     ;
(PID.TID 0000.0001) PTRACERS_useDWNSLP = /* apply DOWN-SLOPE Flow */
(PID.TID 0000.0001)                   F
(PID.TID 0000.0001)     ;
(PID.TID 0000.0001) PTRACERS_useKPP = /* apply KPP scheme */
(PID.TID 0000.0001)                   F
(PID.TID 0000.0001)     ;
(PID.TID 0000.0001) PTRACERS_ref = /* Reference vertical profile */
(PID.TID 0000.0001)    15 @  0.000000000000000E+00              /* K =  1: 15 */
(PID.TID 0000.0001)     ;
(PID.TID 0000.0001) PTRACERS_EvPrRn =/* tracer conc. in Evap. & Rain */
(PID.TID 0000.0001)                 1.234567000000000E+05
(PID.TID 0000.0001)     ;
(PID.TID 0000.0001)  -----------------------------------
(PID.TID 0000.0001)  tracer number :   27
(PID.TID 0000.0001) PTRACERS_names = /* Tracer short name */
(PID.TID 0000.0001)               'c10'
(PID.TID 0000.0001)     ;
(PID.TID 0000.0001) PTRACERS_long_names = /* Tracer long name */
(PID.TID 0000.0001)               ''
(PID.TID 0000.0001)     ;
(PID.TID 0000.0001) PTRACERS_ioLabel = /* tracer IO Label */
(PID.TID 0000.0001)               '27'
(PID.TID 0000.0001)     ;
(PID.TID 0000.0001) PTRACERS_advScheme = /* Advection Scheme */
(PID.TID 0000.0001)                      33
(PID.TID 0000.0001)     ;
(PID.TID 0000.0001) PTRACERS_SOM_Advection = /* tracer uses SOM advection scheme */
(PID.TID 0000.0001)                   F
(PID.TID 0000.0001)     ;
(PID.TID 0000.0001) PTRACERS_ImplVertAdv = /* implicit vert. advection flag */
(PID.TID 0000.0001)                   F
(PID.TID 0000.0001)     ;
(PID.TID 0000.0001) PTRACERS_diffKh = /* Laplacian Diffusivity */
(PID.TID 0000.0001)                 0.000000000000000E+00
(PID.TID 0000.0001)     ;
(PID.TID 0000.0001) PTRACERS_diffK4 = /* Biharmonic Diffusivity */
(PID.TID 0000.0001)                 0.000000000000000E+00
(PID.TID 0000.0001)     ;
(PID.TID 0000.0001) PTRACERS_diffKrNr = /* Vertical Diffusivity */
(PID.TID 0000.0001)    15 @  1.000000000000000E-05              /* K =  1: 15 */
(PID.TID 0000.0001)     ;
(PID.TID 0000.0001) PTRACERS_useGMRedi = /* apply GM-Redi */
(PID.TID 0000.0001)                   T
(PID.TID 0000.0001)     ;
(PID.TID 0000.0001) PTRACERS_useDWNSLP = /* apply DOWN-SLOPE Flow */
(PID.TID 0000.0001)                   F
(PID.TID 0000.0001)     ;
(PID.TID 0000.0001) PTRACERS_useKPP = /* apply KPP scheme */
(PID.TID 0000.0001)                   F
(PID.TID 0000.0001)     ;
(PID.TID 0000.0001) PTRACERS_ref = /* Reference vertical profile */
(PID.TID 0000.0001)    15 @  0.000000000000000E+00              /* K =  1: 15 */
(PID.TID 0000.0001)     ;
(PID.TID 0000.0001) PTRACERS_EvPrRn =/* tracer conc. in Evap. & Rain */
(PID.TID 0000.0001)                 1.234567000000000E+05
(PID.TID 0000.0001)     ;
(PID.TID 0000.0001)  -----------------------------------
(PID.TID 0000.0001)  tracer number :   28
(PID.TID 0000.0001) PTRACERS_names = /* Tracer short name */
(PID.TID 0000.0001)               'c11'
(PID.TID 0000.0001)     ;
(PID.TID 0000.0001) PTRACERS_long_names = /* Tracer long name */
(PID.TID 0000.0001)               ''
(PID.TID 0000.0001)     ;
(PID.TID 0000.0001) PTRACERS_ioLabel = /* tracer IO Label */
(PID.TID 0000.0001)               '28'
(PID.TID 0000.0001)     ;
(PID.TID 0000.0001) PTRACERS_advScheme = /* Advection Scheme */
(PID.TID 0000.0001)                      33
(PID.TID 0000.0001)     ;
(PID.TID 0000.0001) PTRACERS_SOM_Advection = /* tracer uses SOM advection scheme */
(PID.TID 0000.0001)                   F
(PID.TID 0000.0001)     ;
(PID.TID 0000.0001) PTRACERS_ImplVertAdv = /* implicit vert. advection flag */
(PID.TID 0000.0001)                   F
(PID.TID 0000.0001)     ;
(PID.TID 0000.0001) PTRACERS_diffKh = /* Laplacian Diffusivity */
(PID.TID 0000.0001)                 0.000000000000000E+00
(PID.TID 0000.0001)     ;
(PID.TID 0000.0001) PTRACERS_diffK4 = /* Biharmonic Diffusivity */
(PID.TID 0000.0001)                 0.000000000000000E+00
(PID.TID 0000.0001)     ;
(PID.TID 0000.0001) PTRACERS_diffKrNr = /* Vertical Diffusivity */
(PID.TID 0000.0001)    15 @  1.000000000000000E-05              /* K =  1: 15 */
(PID.TID 0000.0001)     ;
(PID.TID 0000.0001) PTRACERS_useGMRedi = /* apply GM-Redi */
(PID.TID 0000.0001)                   T
(PID.TID 0000.0001)     ;
(PID.TID 0000.0001) PTRACERS_useDWNSLP = /* apply DOWN-SLOPE Flow */
(PID.TID 0000.0001)                   F
(PID.TID 0000.0001)     ;
(PID.TID 0000.0001) PTRACERS_useKPP = /* apply KPP scheme */
(PID.TID 0000.0001)                   F
(PID.TID 0000.0001)     ;
(PID.TID 0000.0001) PTRACERS_ref = /* Reference vertical profile */
(PID.TID 0000.0001)    15 @  0.000000000000000E+00              /* K =  1: 15 */
(PID.TID 0000.0001)     ;
(PID.TID 0000.0001) PTRACERS_EvPrRn =/* tracer conc. in Evap. & Rain */
(PID.TID 0000.0001)                 1.234567000000000E+05
(PID.TID 0000.0001)     ;
(PID.TID 0000.0001)  -----------------------------------
(PID.TID 0000.0001)  tracer number :   29
(PID.TID 0000.0001) PTRACERS_names = /* Tracer short name */
(PID.TID 0000.0001)               'c12'
(PID.TID 0000.0001)     ;
(PID.TID 0000.0001) PTRACERS_long_names = /* Tracer long name */
(PID.TID 0000.0001)               ''
(PID.TID 0000.0001)     ;
(PID.TID 0000.0001) PTRACERS_ioLabel = /* tracer IO Label */
(PID.TID 0000.0001)               '29'
(PID.TID 0000.0001)     ;
(PID.TID 0000.0001) PTRACERS_advScheme = /* Advection Scheme */
(PID.TID 0000.0001)                      33
(PID.TID 0000.0001)     ;
(PID.TID 0000.0001) PTRACERS_SOM_Advection = /* tracer uses SOM advection scheme */
(PID.TID 0000.0001)                   F
(PID.TID 0000.0001)     ;
(PID.TID 0000.0001) PTRACERS_ImplVertAdv = /* implicit vert. advection flag */
(PID.TID 0000.0001)                   F
(PID.TID 0000.0001)     ;
(PID.TID 0000.0001) PTRACERS_diffKh = /* Laplacian Diffusivity */
(PID.TID 0000.0001)                 0.000000000000000E+00
(PID.TID 0000.0001)     ;
(PID.TID 0000.0001) PTRACERS_diffK4 = /* Biharmonic Diffusivity */
(PID.TID 0000.0001)                 0.000000000000000E+00
(PID.TID 0000.0001)     ;
(PID.TID 0000.0001) PTRACERS_diffKrNr = /* Vertical Diffusivity */
(PID.TID 0000.0001)    15 @  1.000000000000000E-05              /* K =  1: 15 */
(PID.TID 0000.0001)     ;
(PID.TID 0000.0001) PTRACERS_useGMRedi = /* apply GM-Redi */
(PID.TID 0000.0001)                   T
(PID.TID 0000.0001)     ;
(PID.TID 0000.0001) PTRACERS_useDWNSLP = /* apply DOWN-SLOPE Flow */
(PID.TID 0000.0001)                   F
(PID.TID 0000.0001)     ;
(PID.TID 0000.0001) PTRACERS_useKPP = /* apply KPP scheme */
(PID.TID 0000.0001)                   F
(PID.TID 0000.0001)     ;
(PID.TID 0000.0001) PTRACERS_ref = /* Reference vertical profile */
(PID.TID 0000.0001)    15 @  0.000000000000000E+00              /* K =  1: 15 */
(PID.TID 0000.0001)     ;
(PID.TID 0000.0001) PTRACERS_EvPrRn =/* tracer conc. in Evap. & Rain */
(PID.TID 0000.0001)                 1.234567000000000E+05
(PID.TID 0000.0001)     ;
(PID.TID 0000.0001)  -----------------------------------
(PID.TID 0000.0001)  tracer number :   30
(PID.TID 0000.0001) PTRACERS_names = /* Tracer short name */
(PID.TID 0000.0001)               'c13'
(PID.TID 0000.0001)     ;
(PID.TID 0000.0001) PTRACERS_long_names = /* Tracer long name */
(PID.TID 0000.0001)               ''
(PID.TID 0000.0001)     ;
(PID.TID 0000.0001) PTRACERS_ioLabel = /* tracer IO Label */
(PID.TID 0000.0001)               '30'
(PID.TID 0000.0001)     ;
(PID.TID 0000.0001) PTRACERS_advScheme = /* Advection Scheme */
(PID.TID 0000.0001)                      33
(PID.TID 0000.0001)     ;
(PID.TID 0000.0001) PTRACERS_SOM_Advection = /* tracer uses SOM advection scheme */
(PID.TID 0000.0001)                   F
(PID.TID 0000.0001)     ;
(PID.TID 0000.0001) PTRACERS_ImplVertAdv = /* implicit vert. advection flag */
(PID.TID 0000.0001)                   F
(PID.TID 0000.0001)     ;
(PID.TID 0000.0001) PTRACERS_diffKh = /* Laplacian Diffusivity */
(PID.TID 0000.0001)                 0.000000000000000E+00
(PID.TID 0000.0001)     ;
(PID.TID 0000.0001) PTRACERS_diffK4 = /* Biharmonic Diffusivity */
(PID.TID 0000.0001)                 0.000000000000000E+00
(PID.TID 0000.0001)     ;
(PID.TID 0000.0001) PTRACERS_diffKrNr = /* Vertical Diffusivity */
(PID.TID 0000.0001)    15 @  1.000000000000000E-05              /* K =  1: 15 */
(PID.TID 0000.0001)     ;
(PID.TID 0000.0001) PTRACERS_useGMRedi = /* apply GM-Redi */
(PID.TID 0000.0001)                   T
(PID.TID 0000.0001)     ;
(PID.TID 0000.0001) PTRACERS_useDWNSLP = /* apply DOWN-SLOPE Flow */
(PID.TID 0000.0001)                   F
(PID.TID 0000.0001)     ;
(PID.TID 0000.0001) PTRACERS_useKPP = /* apply KPP scheme */
(PID.TID 0000.0001)                   F
(PID.TID 0000.0001)     ;
(PID.TID 0000.0001) PTRACERS_ref = /* Reference vertical profile */
(PID.TID 0000.0001)    15 @  0.000000000000000E+00              /* K =  1: 15 */
(PID.TID 0000.0001)     ;
(PID.TID 0000.0001) PTRACERS_EvPrRn =/* tracer conc. in Evap. & Rain */
(PID.TID 0000.0001)                 1.234567000000000E+05
(PID.TID 0000.0001)     ;
(PID.TID 0000.0001)  -----------------------------------
(PID.TID 0000.0001)  tracer number :   31
(PID.TID 0000.0001) PTRACERS_names = /* Tracer short name */
(PID.TID 0000.0001)               'c14'
(PID.TID 0000.0001)     ;
(PID.TID 0000.0001) PTRACERS_long_names = /* Tracer long name */
(PID.TID 0000.0001)               ''
(PID.TID 0000.0001)     ;
(PID.TID 0000.0001) PTRACERS_ioLabel = /* tracer IO Label */
(PID.TID 0000.0001)               '31'
(PID.TID 0000.0001)     ;
(PID.TID 0000.0001) PTRACERS_advScheme = /* Advection Scheme */
(PID.TID 0000.0001)                      33
(PID.TID 0000.0001)     ;
(PID.TID 0000.0001) PTRACERS_SOM_Advection = /* tracer uses SOM advection scheme */
(PID.TID 0000.0001)                   F
(PID.TID 0000.0001)     ;
(PID.TID 0000.0001) PTRACERS_ImplVertAdv = /* implicit vert. advection flag */
(PID.TID 0000.0001)                   F
(PID.TID 0000.0001)     ;
(PID.TID 0000.0001) PTRACERS_diffKh = /* Laplacian Diffusivity */
(PID.TID 0000.0001)                 0.000000000000000E+00
(PID.TID 0000.0001)     ;
(PID.TID 0000.0001) PTRACERS_diffK4 = /* Biharmonic Diffusivity */
(PID.TID 0000.0001)                 0.000000000000000E+00
(PID.TID 0000.0001)     ;
(PID.TID 0000.0001) PTRACERS_diffKrNr = /* Vertical Diffusivity */
(PID.TID 0000.0001)    15 @  1.000000000000000E-05              /* K =  1: 15 */
(PID.TID 0000.0001)     ;
(PID.TID 0000.0001) PTRACERS_useGMRedi = /* apply GM-Redi */
(PID.TID 0000.0001)                   T
(PID.TID 0000.0001)     ;
(PID.TID 0000.0001) PTRACERS_useDWNSLP = /* apply DOWN-SLOPE Flow */
(PID.TID 0000.0001)                   F
(PID.TID 0000.0001)     ;
(PID.TID 0000.0001) PTRACERS_useKPP = /* apply KPP scheme */
(PID.TID 0000.0001)                   F
(PID.TID 0000.0001)     ;
(PID.TID 0000.0001) PTRACERS_ref = /* Reference vertical profile */
(PID.TID 0000.0001)    15 @  0.000000000000000E+00              /* K =  1: 15 */
(PID.TID 0000.0001)     ;
(PID.TID 0000.0001) PTRACERS_EvPrRn =/* tracer conc. in Evap. & Rain */
(PID.TID 0000.0001)                 1.234567000000000E+05
(PID.TID 0000.0001)     ;
(PID.TID 0000.0001)  -----------------------------------
(PID.TID 0000.0001)  tracer number :   32
(PID.TID 0000.0001) PTRACERS_names = /* Tracer short name */
(PID.TID 0000.0001)               'c15'
(PID.TID 0000.0001)     ;
(PID.TID 0000.0001) PTRACERS_long_names = /* Tracer long name */
(PID.TID 0000.0001)               ''
(PID.TID 0000.0001)     ;
(PID.TID 0000.0001) PTRACERS_ioLabel = /* tracer IO Label */
(PID.TID 0000.0001)               '32'
(PID.TID 0000.0001)     ;
(PID.TID 0000.0001) PTRACERS_advScheme = /* Advection Scheme */
(PID.TID 0000.0001)                      33
(PID.TID 0000.0001)     ;
(PID.TID 0000.0001) PTRACERS_SOM_Advection = /* tracer uses SOM advection scheme */
(PID.TID 0000.0001)                   F
(PID.TID 0000.0001)     ;
(PID.TID 0000.0001) PTRACERS_ImplVertAdv = /* implicit vert. advection flag */
(PID.TID 0000.0001)                   F
(PID.TID 0000.0001)     ;
(PID.TID 0000.0001) PTRACERS_diffKh = /* Laplacian Diffusivity */
(PID.TID 0000.0001)                 0.000000000000000E+00
(PID.TID 0000.0001)     ;
(PID.TID 0000.0001) PTRACERS_diffK4 = /* Biharmonic Diffusivity */
(PID.TID 0000.0001)                 0.000000000000000E+00
(PID.TID 0000.0001)     ;
(PID.TID 0000.0001) PTRACERS_diffKrNr = /* Vertical Diffusivity */
(PID.TID 0000.0001)    15 @  1.000000000000000E-05              /* K =  1: 15 */
(PID.TID 0000.0001)     ;
(PID.TID 0000.0001) PTRACERS_useGMRedi = /* apply GM-Redi */
(PID.TID 0000.0001)                   T
(PID.TID 0000.0001)     ;
(PID.TID 0000.0001) PTRACERS_useDWNSLP = /* apply DOWN-SLOPE Flow */
(PID.TID 0000.0001)                   F
(PID.TID 0000.0001)     ;
(PID.TID 0000.0001) PTRACERS_useKPP = /* apply KPP scheme */
(PID.TID 0000.0001)                   F
(PID.TID 0000.0001)     ;
(PID.TID 0000.0001) PTRACERS_ref = /* Reference vertical profile */
(PID.TID 0000.0001)    15 @  0.000000000000000E+00              /* K =  1: 15 */
(PID.TID 0000.0001)     ;
(PID.TID 0000.0001) PTRACERS_EvPrRn =/* tracer conc. in Evap. & Rain */
(PID.TID 0000.0001)                 1.234567000000000E+05
(PID.TID 0000.0001)     ;
(PID.TID 0000.0001)  -----------------------------------
(PID.TID 0000.0001)  tracer number :   33
(PID.TID 0000.0001) PTRACERS_names = /* Tracer short name */
(PID.TID 0000.0001)               'c16'
(PID.TID 0000.0001)     ;
(PID.TID 0000.0001) PTRACERS_long_names = /* Tracer long name */
(PID.TID 0000.0001)               ''
(PID.TID 0000.0001)     ;
(PID.TID 0000.0001) PTRACERS_ioLabel = /* tracer IO Label */
(PID.TID 0000.0001)               '33'
(PID.TID 0000.0001)     ;
(PID.TID 0000.0001) PTRACERS_advScheme = /* Advection Scheme */
(PID.TID 0000.0001)                      33
(PID.TID 0000.0001)     ;
(PID.TID 0000.0001) PTRACERS_SOM_Advection = /* tracer uses SOM advection scheme */
(PID.TID 0000.0001)                   F
(PID.TID 0000.0001)     ;
(PID.TID 0000.0001) PTRACERS_ImplVertAdv = /* implicit vert. advection flag */
(PID.TID 0000.0001)                   F
(PID.TID 0000.0001)     ;
(PID.TID 0000.0001) PTRACERS_diffKh = /* Laplacian Diffusivity */
(PID.TID 0000.0001)                 0.000000000000000E+00
(PID.TID 0000.0001)     ;
(PID.TID 0000.0001) PTRACERS_diffK4 = /* Biharmonic Diffusivity */
(PID.TID 0000.0001)                 0.000000000000000E+00
(PID.TID 0000.0001)     ;
(PID.TID 0000.0001) PTRACERS_diffKrNr = /* Vertical Diffusivity */
(PID.TID 0000.0001)    15 @  1.000000000000000E-05              /* K =  1: 15 */
(PID.TID 0000.0001)     ;
(PID.TID 0000.0001) PTRACERS_useGMRedi = /* apply GM-Redi */
(PID.TID 0000.0001)                   T
(PID.TID 0000.0001)     ;
(PID.TID 0000.0001) PTRACERS_useDWNSLP = /* apply DOWN-SLOPE Flow */
(PID.TID 0000.0001)                   F
(PID.TID 0000.0001)     ;
(PID.TID 0000.0001) PTRACERS_useKPP = /* apply KPP scheme */
(PID.TID 0000.0001)                   F
(PID.TID 0000.0001)     ;
(PID.TID 0000.0001) PTRACERS_ref = /* Reference vertical profile */
(PID.TID 0000.0001)    15 @  0.000000000000000E+00              /* K =  1: 15 */
(PID.TID 0000.0001)     ;
(PID.TID 0000.0001) PTRACERS_EvPrRn =/* tracer conc. in Evap. & Rain */
(PID.TID 0000.0001)                 1.234567000000000E+05
(PID.TID 0000.0001)     ;
(PID.TID 0000.0001)  -----------------------------------
(PID.TID 0000.0001)  tracer number :   34
(PID.TID 0000.0001) PTRACERS_names = /* Tracer short name */
(PID.TID 0000.0001)               'c17'
(PID.TID 0000.0001)     ;
(PID.TID 0000.0001) PTRACERS_long_names = /* Tracer long name */
(PID.TID 0000.0001)               ''
(PID.TID 0000.0001)     ;
(PID.TID 0000.0001) PTRACERS_ioLabel = /* tracer IO Label */
(PID.TID 0000.0001)               '34'
(PID.TID 0000.0001)     ;
(PID.TID 0000.0001) PTRACERS_advScheme = /* Advection Scheme */
(PID.TID 0000.0001)                      33
(PID.TID 0000.0001)     ;
(PID.TID 0000.0001) PTRACERS_SOM_Advection = /* tracer uses SOM advection scheme */
(PID.TID 0000.0001)                   F
(PID.TID 0000.0001)     ;
(PID.TID 0000.0001) PTRACERS_ImplVertAdv = /* implicit vert. advection flag */
(PID.TID 0000.0001)                   F
(PID.TID 0000.0001)     ;
(PID.TID 0000.0001) PTRACERS_diffKh = /* Laplacian Diffusivity */
(PID.TID 0000.0001)                 0.000000000000000E+00
(PID.TID 0000.0001)     ;
(PID.TID 0000.0001) PTRACERS_diffK4 = /* Biharmonic Diffusivity */
(PID.TID 0000.0001)                 0.000000000000000E+00
(PID.TID 0000.0001)     ;
(PID.TID 0000.0001) PTRACERS_diffKrNr = /* Vertical Diffusivity */
(PID.TID 0000.0001)    15 @  1.000000000000000E-05              /* K =  1: 15 */
(PID.TID 0000.0001)     ;
(PID.TID 0000.0001) PTRACERS_useGMRedi = /* apply GM-Redi */
(PID.TID 0000.0001)                   T
(PID.TID 0000.0001)     ;
(PID.TID 0000.0001) PTRACERS_useDWNSLP = /* apply DOWN-SLOPE Flow */
(PID.TID 0000.0001)                   F
(PID.TID 0000.0001)     ;
(PID.TID 0000.0001) PTRACERS_useKPP = /* apply KPP scheme */
(PID.TID 0000.0001)                   F
(PID.TID 0000.0001)     ;
(PID.TID 0000.0001) PTRACERS_ref = /* Reference vertical profile */
(PID.TID 0000.0001)    15 @  0.000000000000000E+00              /* K =  1: 15 */
(PID.TID 0000.0001)     ;
(PID.TID 0000.0001) PTRACERS_EvPrRn =/* tracer conc. in Evap. & Rain */
(PID.TID 0000.0001)                 1.234567000000000E+05
(PID.TID 0000.0001)     ;
(PID.TID 0000.0001)  -----------------------------------
(PID.TID 0000.0001)  tracer number :   35
(PID.TID 0000.0001) PTRACERS_names = /* Tracer short name */
(PID.TID 0000.0001)               'c18'
(PID.TID 0000.0001)     ;
(PID.TID 0000.0001) PTRACERS_long_names = /* Tracer long name */
(PID.TID 0000.0001)               ''
(PID.TID 0000.0001)     ;
(PID.TID 0000.0001) PTRACERS_ioLabel = /* tracer IO Label */
(PID.TID 0000.0001)               '35'
(PID.TID 0000.0001)     ;
(PID.TID 0000.0001) PTRACERS_advScheme = /* Advection Scheme */
(PID.TID 0000.0001)                      33
(PID.TID 0000.0001)     ;
(PID.TID 0000.0001) PTRACERS_SOM_Advection = /* tracer uses SOM advection scheme */
(PID.TID 0000.0001)                   F
(PID.TID 0000.0001)     ;
(PID.TID 0000.0001) PTRACERS_ImplVertAdv = /* implicit vert. advection flag */
(PID.TID 0000.0001)                   F
(PID.TID 0000.0001)     ;
(PID.TID 0000.0001) PTRACERS_diffKh = /* Laplacian Diffusivity */
(PID.TID 0000.0001)                 0.000000000000000E+00
(PID.TID 0000.0001)     ;
(PID.TID 0000.0001) PTRACERS_diffK4 = /* Biharmonic Diffusivity */
(PID.TID 0000.0001)                 0.000000000000000E+00
(PID.TID 0000.0001)     ;
(PID.TID 0000.0001) PTRACERS_diffKrNr = /* Vertical Diffusivity */
(PID.TID 0000.0001)    15 @  1.000000000000000E-05              /* K =  1: 15 */
(PID.TID 0000.0001)     ;
(PID.TID 0000.0001) PTRACERS_useGMRedi = /* apply GM-Redi */
(PID.TID 0000.0001)                   T
(PID.TID 0000.0001)     ;
(PID.TID 0000.0001) PTRACERS_useDWNSLP = /* apply DOWN-SLOPE Flow */
(PID.TID 0000.0001)                   F
(PID.TID 0000.0001)     ;
(PID.TID 0000.0001) PTRACERS_useKPP = /* apply KPP scheme */
(PID.TID 0000.0001)                   F
(PID.TID 0000.0001)     ;
(PID.TID 0000.0001) PTRACERS_ref = /* Reference vertical profile */
(PID.TID 0000.0001)    15 @  0.000000000000000E+00              /* K =  1: 15 */
(PID.TID 0000.0001)     ;
(PID.TID 0000.0001) PTRACERS_EvPrRn =/* tracer conc. in Evap. & Rain */
(PID.TID 0000.0001)                 1.234567000000000E+05
(PID.TID 0000.0001)     ;
(PID.TID 0000.0001)  -----------------------------------
(PID.TID 0000.0001)  tracer number :   36
(PID.TID 0000.0001) PTRACERS_names = /* Tracer short name */
(PID.TID 0000.0001)               'c19'
(PID.TID 0000.0001)     ;
(PID.TID 0000.0001) PTRACERS_long_names = /* Tracer long name */
(PID.TID 0000.0001)               ''
(PID.TID 0000.0001)     ;
(PID.TID 0000.0001) PTRACERS_ioLabel = /* tracer IO Label */
(PID.TID 0000.0001)               '36'
(PID.TID 0000.0001)     ;
(PID.TID 0000.0001) PTRACERS_advScheme = /* Advection Scheme */
(PID.TID 0000.0001)                      33
(PID.TID 0000.0001)     ;
(PID.TID 0000.0001) PTRACERS_SOM_Advection = /* tracer uses SOM advection scheme */
(PID.TID 0000.0001)                   F
(PID.TID 0000.0001)     ;
(PID.TID 0000.0001) PTRACERS_ImplVertAdv = /* implicit vert. advection flag */
(PID.TID 0000.0001)                   F
(PID.TID 0000.0001)     ;
(PID.TID 0000.0001) PTRACERS_diffKh = /* Laplacian Diffusivity */
(PID.TID 0000.0001)                 0.000000000000000E+00
(PID.TID 0000.0001)     ;
(PID.TID 0000.0001) PTRACERS_diffK4 = /* Biharmonic Diffusivity */
(PID.TID 0000.0001)                 0.000000000000000E+00
(PID.TID 0000.0001)     ;
(PID.TID 0000.0001) PTRACERS_diffKrNr = /* Vertical Diffusivity */
(PID.TID 0000.0001)    15 @  1.000000000000000E-05              /* K =  1: 15 */
(PID.TID 0000.0001)     ;
(PID.TID 0000.0001) PTRACERS_useGMRedi = /* apply GM-Redi */
(PID.TID 0000.0001)                   T
(PID.TID 0000.0001)     ;
(PID.TID 0000.0001) PTRACERS_useDWNSLP = /* apply DOWN-SLOPE Flow */
(PID.TID 0000.0001)                   F
(PID.TID 0000.0001)     ;
(PID.TID 0000.0001) PTRACERS_useKPP = /* apply KPP scheme */
(PID.TID 0000.0001)                   F
(PID.TID 0000.0001)     ;
(PID.TID 0000.0001) PTRACERS_ref = /* Reference vertical profile */
(PID.TID 0000.0001)    15 @  0.000000000000000E+00              /* K =  1: 15 */
(PID.TID 0000.0001)     ;
(PID.TID 0000.0001) PTRACERS_EvPrRn =/* tracer conc. in Evap. & Rain */
(PID.TID 0000.0001)                 1.234567000000000E+05
(PID.TID 0000.0001)     ;
(PID.TID 0000.0001)  -----------------------------------
(PID.TID 0000.0001)  tracer number :   37
(PID.TID 0000.0001) PTRACERS_names = /* Tracer short name */
(PID.TID 0000.0001)               'c20'
(PID.TID 0000.0001)     ;
(PID.TID 0000.0001) PTRACERS_long_names = /* Tracer long name */
(PID.TID 0000.0001)               ''
(PID.TID 0000.0001)     ;
(PID.TID 0000.0001) PTRACERS_ioLabel = /* tracer IO Label */
(PID.TID 0000.0001)               '37'
(PID.TID 0000.0001)     ;
(PID.TID 0000.0001) PTRACERS_advScheme = /* Advection Scheme */
(PID.TID 0000.0001)                      33
(PID.TID 0000.0001)     ;
(PID.TID 0000.0001) PTRACERS_SOM_Advection = /* tracer uses SOM advection scheme */
(PID.TID 0000.0001)                   F
(PID.TID 0000.0001)     ;
(PID.TID 0000.0001) PTRACERS_ImplVertAdv = /* implicit vert. advection flag */
(PID.TID 0000.0001)                   F
(PID.TID 0000.0001)     ;
(PID.TID 0000.0001) PTRACERS_diffKh = /* Laplacian Diffusivity */
(PID.TID 0000.0001)                 0.000000000000000E+00
(PID.TID 0000.0001)     ;
(PID.TID 0000.0001) PTRACERS_diffK4 = /* Biharmonic Diffusivity */
(PID.TID 0000.0001)                 0.000000000000000E+00
(PID.TID 0000.0001)     ;
(PID.TID 0000.0001) PTRACERS_diffKrNr = /* Vertical Diffusivity */
(PID.TID 0000.0001)    15 @  1.000000000000000E-05              /* K =  1: 15 */
(PID.TID 0000.0001)     ;
(PID.TID 0000.0001) PTRACERS_useGMRedi = /* apply GM-Redi */
(PID.TID 0000.0001)                   T
(PID.TID 0000.0001)     ;
(PID.TID 0000.0001) PTRACERS_useDWNSLP = /* apply DOWN-SLOPE Flow */
(PID.TID 0000.0001)                   F
(PID.TID 0000.0001)     ;
(PID.TID 0000.0001) PTRACERS_useKPP = /* apply KPP scheme */
(PID.TID 0000.0001)                   F
(PID.TID 0000.0001)     ;
(PID.TID 0000.0001) PTRACERS_ref = /* Reference vertical profile */
(PID.TID 0000.0001)    15 @  0.000000000000000E+00              /* K =  1: 15 */
(PID.TID 0000.0001)     ;
(PID.TID 0000.0001) PTRACERS_EvPrRn =/* tracer conc. in Evap. & Rain */
(PID.TID 0000.0001)                 1.234567000000000E+05
(PID.TID 0000.0001)     ;
(PID.TID 0000.0001)  -----------------------------------
(PID.TID 0000.0001)  tracer number :   38
(PID.TID 0000.0001) PTRACERS_names = /* Tracer short name */
(PID.TID 0000.0001)               'c21'
(PID.TID 0000.0001)     ;
(PID.TID 0000.0001) PTRACERS_long_names = /* Tracer long name */
(PID.TID 0000.0001)               ''
(PID.TID 0000.0001)     ;
(PID.TID 0000.0001) PTRACERS_ioLabel = /* tracer IO Label */
(PID.TID 0000.0001)               '38'
(PID.TID 0000.0001)     ;
(PID.TID 0000.0001) PTRACERS_advScheme = /* Advection Scheme */
(PID.TID 0000.0001)                      33
(PID.TID 0000.0001)     ;
(PID.TID 0000.0001) PTRACERS_SOM_Advection = /* tracer uses SOM advection scheme */
(PID.TID 0000.0001)                   F
(PID.TID 0000.0001)     ;
(PID.TID 0000.0001) PTRACERS_ImplVertAdv = /* implicit vert. advection flag */
(PID.TID 0000.0001)                   F
(PID.TID 0000.0001)     ;
(PID.TID 0000.0001) PTRACERS_diffKh = /* Laplacian Diffusivity */
(PID.TID 0000.0001)                 0.000000000000000E+00
(PID.TID 0000.0001)     ;
(PID.TID 0000.0001) PTRACERS_diffK4 = /* Biharmonic Diffusivity */
(PID.TID 0000.0001)                 0.000000000000000E+00
(PID.TID 0000.0001)     ;
(PID.TID 0000.0001) PTRACERS_diffKrNr = /* Vertical Diffusivity */
(PID.TID 0000.0001)    15 @  1.000000000000000E-05              /* K =  1: 15 */
(PID.TID 0000.0001)     ;
(PID.TID 0000.0001) PTRACERS_useGMRedi = /* apply GM-Redi */
(PID.TID 0000.0001)                   T
(PID.TID 0000.0001)     ;
(PID.TID 0000.0001) PTRACERS_useDWNSLP = /* apply DOWN-SLOPE Flow */
(PID.TID 0000.0001)                   F
(PID.TID 0000.0001)     ;
(PID.TID 0000.0001) PTRACERS_useKPP = /* apply KPP scheme */
(PID.TID 0000.0001)                   F
(PID.TID 0000.0001)     ;
(PID.TID 0000.0001) PTRACERS_ref = /* Reference vertical profile */
(PID.TID 0000.0001)    15 @  0.000000000000000E+00              /* K =  1: 15 */
(PID.TID 0000.0001)     ;
(PID.TID 0000.0001) PTRACERS_EvPrRn =/* tracer conc. in Evap. & Rain */
(PID.TID 0000.0001)                 1.234567000000000E+05
(PID.TID 0000.0001)     ;
(PID.TID 0000.0001)  -----------------------------------
(PID.TID 0000.0001)  tracer number :   39
(PID.TID 0000.0001) PTRACERS_names = /* Tracer short name */
(PID.TID 0000.0001)               'c22'
(PID.TID 0000.0001)     ;
(PID.TID 0000.0001) PTRACERS_long_names = /* Tracer long name */
(PID.TID 0000.0001)               ''
(PID.TID 0000.0001)     ;
(PID.TID 0000.0001) PTRACERS_ioLabel = /* tracer IO Label */
(PID.TID 0000.0001)               '39'
(PID.TID 0000.0001)     ;
(PID.TID 0000.0001) PTRACERS_advScheme = /* Advection Scheme */
(PID.TID 0000.0001)                      33
(PID.TID 0000.0001)     ;
(PID.TID 0000.0001) PTRACERS_SOM_Advection = /* tracer uses SOM advection scheme */
(PID.TID 0000.0001)                   F
(PID.TID 0000.0001)     ;
(PID.TID 0000.0001) PTRACERS_ImplVertAdv = /* implicit vert. advection flag */
(PID.TID 0000.0001)                   F
(PID.TID 0000.0001)     ;
(PID.TID 0000.0001) PTRACERS_diffKh = /* Laplacian Diffusivity */
(PID.TID 0000.0001)                 0.000000000000000E+00
(PID.TID 0000.0001)     ;
(PID.TID 0000.0001) PTRACERS_diffK4 = /* Biharmonic Diffusivity */
(PID.TID 0000.0001)                 0.000000000000000E+00
(PID.TID 0000.0001)     ;
(PID.TID 0000.0001) PTRACERS_diffKrNr = /* Vertical Diffusivity */
(PID.TID 0000.0001)    15 @  1.000000000000000E-05              /* K =  1: 15 */
(PID.TID 0000.0001)     ;
(PID.TID 0000.0001) PTRACERS_useGMRedi = /* apply GM-Redi */
(PID.TID 0000.0001)                   T
(PID.TID 0000.0001)     ;
(PID.TID 0000.0001) PTRACERS_useDWNSLP = /* apply DOWN-SLOPE Flow */
(PID.TID 0000.0001)                   F
(PID.TID 0000.0001)     ;
(PID.TID 0000.0001) PTRACERS_useKPP = /* apply KPP scheme */
(PID.TID 0000.0001)                   F
(PID.TID 0000.0001)     ;
(PID.TID 0000.0001) PTRACERS_ref = /* Reference vertical profile */
(PID.TID 0000.0001)    15 @  0.000000000000000E+00              /* K =  1: 15 */
(PID.TID 0000.0001)     ;
(PID.TID 0000.0001) PTRACERS_EvPrRn =/* tracer conc. in Evap. & Rain */
(PID.TID 0000.0001)                 1.234567000000000E+05
(PID.TID 0000.0001)     ;
(PID.TID 0000.0001)  -----------------------------------
(PID.TID 0000.0001)  tracer number :   40
(PID.TID 0000.0001) PTRACERS_names = /* Tracer short name */
(PID.TID 0000.0001)               'c23'
(PID.TID 0000.0001)     ;
(PID.TID 0000.0001) PTRACERS_long_names = /* Tracer long name */
(PID.TID 0000.0001)               ''
(PID.TID 0000.0001)     ;
(PID.TID 0000.0001) PTRACERS_ioLabel = /* tracer IO Label */
(PID.TID 0000.0001)               '40'
(PID.TID 0000.0001)     ;
(PID.TID 0000.0001) PTRACERS_advScheme = /* Advection Scheme */
(PID.TID 0000.0001)                      33
(PID.TID 0000.0001)     ;
(PID.TID 0000.0001) PTRACERS_SOM_Advection = /* tracer uses SOM advection scheme */
(PID.TID 0000.0001)                   F
(PID.TID 0000.0001)     ;
(PID.TID 0000.0001) PTRACERS_ImplVertAdv = /* implicit vert. advection flag */
(PID.TID 0000.0001)                   F
(PID.TID 0000.0001)     ;
(PID.TID 0000.0001) PTRACERS_diffKh = /* Laplacian Diffusivity */
(PID.TID 0000.0001)                 0.000000000000000E+00
(PID.TID 0000.0001)     ;
(PID.TID 0000.0001) PTRACERS_diffK4 = /* Biharmonic Diffusivity */
(PID.TID 0000.0001)                 0.000000000000000E+00
(PID.TID 0000.0001)     ;
(PID.TID 0000.0001) PTRACERS_diffKrNr = /* Vertical Diffusivity */
(PID.TID 0000.0001)    15 @  1.000000000000000E-05              /* K =  1: 15 */
(PID.TID 0000.0001)     ;
(PID.TID 0000.0001) PTRACERS_useGMRedi = /* apply GM-Redi */
(PID.TID 0000.0001)                   T
(PID.TID 0000.0001)     ;
(PID.TID 0000.0001) PTRACERS_useDWNSLP = /* apply DOWN-SLOPE Flow */
(PID.TID 0000.0001)                   F
(PID.TID 0000.0001)     ;
(PID.TID 0000.0001) PTRACERS_useKPP = /* apply KPP scheme */
(PID.TID 0000.0001)                   F
(PID.TID 0000.0001)     ;
(PID.TID 0000.0001) PTRACERS_ref = /* Reference vertical profile */
(PID.TID 0000.0001)    15 @  0.000000000000000E+00              /* K =  1: 15 */
(PID.TID 0000.0001)     ;
(PID.TID 0000.0001) PTRACERS_EvPrRn =/* tracer conc. in Evap. & Rain */
(PID.TID 0000.0001)                 1.234567000000000E+05
(PID.TID 0000.0001)     ;
(PID.TID 0000.0001)  -----------------------------------
(PID.TID 0000.0001)  tracer number :   41
(PID.TID 0000.0001) PTRACERS_names = /* Tracer short name */
(PID.TID 0000.0001)               'c24'
(PID.TID 0000.0001)     ;
(PID.TID 0000.0001) PTRACERS_long_names = /* Tracer long name */
(PID.TID 0000.0001)               ''
(PID.TID 0000.0001)     ;
(PID.TID 0000.0001) PTRACERS_ioLabel = /* tracer IO Label */
(PID.TID 0000.0001)               '41'
(PID.TID 0000.0001)     ;
(PID.TID 0000.0001) PTRACERS_advScheme = /* Advection Scheme */
(PID.TID 0000.0001)                      33
(PID.TID 0000.0001)     ;
(PID.TID 0000.0001) PTRACERS_SOM_Advection = /* tracer uses SOM advection scheme */
(PID.TID 0000.0001)                   F
(PID.TID 0000.0001)     ;
(PID.TID 0000.0001) PTRACERS_ImplVertAdv = /* implicit vert. advection flag */
(PID.TID 0000.0001)                   F
(PID.TID 0000.0001)     ;
(PID.TID 0000.0001) PTRACERS_diffKh = /* Laplacian Diffusivity */
(PID.TID 0000.0001)                 0.000000000000000E+00
(PID.TID 0000.0001)     ;
(PID.TID 0000.0001) PTRACERS_diffK4 = /* Biharmonic Diffusivity */
(PID.TID 0000.0001)                 0.000000000000000E+00
(PID.TID 0000.0001)     ;
(PID.TID 0000.0001) PTRACERS_diffKrNr = /* Vertical Diffusivity */
(PID.TID 0000.0001)    15 @  1.000000000000000E-05              /* K =  1: 15 */
(PID.TID 0000.0001)     ;
(PID.TID 0000.0001) PTRACERS_useGMRedi = /* apply GM-Redi */
(PID.TID 0000.0001)                   T
(PID.TID 0000.0001)     ;
(PID.TID 0000.0001) PTRACERS_useDWNSLP = /* apply DOWN-SLOPE Flow */
(PID.TID 0000.0001)                   F
(PID.TID 0000.0001)     ;
(PID.TID 0000.0001) PTRACERS_useKPP = /* apply KPP scheme */
(PID.TID 0000.0001)                   F
(PID.TID 0000.0001)     ;
(PID.TID 0000.0001) PTRACERS_ref = /* Reference vertical profile */
(PID.TID 0000.0001)    15 @  0.000000000000000E+00              /* K =  1: 15 */
(PID.TID 0000.0001)     ;
(PID.TID 0000.0001) PTRACERS_EvPrRn =/* tracer conc. in Evap. & Rain */
(PID.TID 0000.0001)                 1.234567000000000E+05
(PID.TID 0000.0001)     ;
(PID.TID 0000.0001)  -----------------------------------
(PID.TID 0000.0001)  tracer number :   42
(PID.TID 0000.0001) PTRACERS_names = /* Tracer short name */
(PID.TID 0000.0001)               'c25'
(PID.TID 0000.0001)     ;
(PID.TID 0000.0001) PTRACERS_long_names = /* Tracer long name */
(PID.TID 0000.0001)               ''
(PID.TID 0000.0001)     ;
(PID.TID 0000.0001) PTRACERS_ioLabel = /* tracer IO Label */
(PID.TID 0000.0001)               '42'
(PID.TID 0000.0001)     ;
(PID.TID 0000.0001) PTRACERS_advScheme = /* Advection Scheme */
(PID.TID 0000.0001)                      33
(PID.TID 0000.0001)     ;
(PID.TID 0000.0001) PTRACERS_SOM_Advection = /* tracer uses SOM advection scheme */
(PID.TID 0000.0001)                   F
(PID.TID 0000.0001)     ;
(PID.TID 0000.0001) PTRACERS_ImplVertAdv = /* implicit vert. advection flag */
(PID.TID 0000.0001)                   F
(PID.TID 0000.0001)     ;
(PID.TID 0000.0001) PTRACERS_diffKh = /* Laplacian Diffusivity */
(PID.TID 0000.0001)                 0.000000000000000E+00
(PID.TID 0000.0001)     ;
(PID.TID 0000.0001) PTRACERS_diffK4 = /* Biharmonic Diffusivity */
(PID.TID 0000.0001)                 0.000000000000000E+00
(PID.TID 0000.0001)     ;
(PID.TID 0000.0001) PTRACERS_diffKrNr = /* Vertical Diffusivity */
(PID.TID 0000.0001)    15 @  1.000000000000000E-05              /* K =  1: 15 */
(PID.TID 0000.0001)     ;
(PID.TID 0000.0001) PTRACERS_useGMRedi = /* apply GM-Redi */
(PID.TID 0000.0001)                   T
(PID.TID 0000.0001)     ;
(PID.TID 0000.0001) PTRACERS_useDWNSLP = /* apply DOWN-SLOPE Flow */
(PID.TID 0000.0001)                   F
(PID.TID 0000.0001)     ;
(PID.TID 0000.0001) PTRACERS_useKPP = /* apply KPP scheme */
(PID.TID 0000.0001)                   F
(PID.TID 0000.0001)     ;
(PID.TID 0000.0001) PTRACERS_ref = /* Reference vertical profile */
(PID.TID 0000.0001)    15 @  0.000000000000000E+00              /* K =  1: 15 */
(PID.TID 0000.0001)     ;
(PID.TID 0000.0001) PTRACERS_EvPrRn =/* tracer conc. in Evap. & Rain */
(PID.TID 0000.0001)                 1.234567000000000E+05
(PID.TID 0000.0001)     ;
(PID.TID 0000.0001)  -----------------------------------
(PID.TID 0000.0001)  tracer number :   43
(PID.TID 0000.0001) PTRACERS_names = /* Tracer short name */
(PID.TID 0000.0001)               'c26'
(PID.TID 0000.0001)     ;
(PID.TID 0000.0001) PTRACERS_long_names = /* Tracer long name */
(PID.TID 0000.0001)               ''
(PID.TID 0000.0001)     ;
(PID.TID 0000.0001) PTRACERS_ioLabel = /* tracer IO Label */
(PID.TID 0000.0001)               '43'
(PID.TID 0000.0001)     ;
(PID.TID 0000.0001) PTRACERS_advScheme = /* Advection Scheme */
(PID.TID 0000.0001)                      33
(PID.TID 0000.0001)     ;
(PID.TID 0000.0001) PTRACERS_SOM_Advection = /* tracer uses SOM advection scheme */
(PID.TID 0000.0001)                   F
(PID.TID 0000.0001)     ;
(PID.TID 0000.0001) PTRACERS_ImplVertAdv = /* implicit vert. advection flag */
(PID.TID 0000.0001)                   F
(PID.TID 0000.0001)     ;
(PID.TID 0000.0001) PTRACERS_diffKh = /* Laplacian Diffusivity */
(PID.TID 0000.0001)                 0.000000000000000E+00
(PID.TID 0000.0001)     ;
(PID.TID 0000.0001) PTRACERS_diffK4 = /* Biharmonic Diffusivity */
(PID.TID 0000.0001)                 0.000000000000000E+00
(PID.TID 0000.0001)     ;
(PID.TID 0000.0001) PTRACERS_diffKrNr = /* Vertical Diffusivity */
(PID.TID 0000.0001)    15 @  1.000000000000000E-05              /* K =  1: 15 */
(PID.TID 0000.0001)     ;
(PID.TID 0000.0001) PTRACERS_useGMRedi = /* apply GM-Redi */
(PID.TID 0000.0001)                   T
(PID.TID 0000.0001)     ;
(PID.TID 0000.0001) PTRACERS_useDWNSLP = /* apply DOWN-SLOPE Flow */
(PID.TID 0000.0001)                   F
(PID.TID 0000.0001)     ;
(PID.TID 0000.0001) PTRACERS_useKPP = /* apply KPP scheme */
(PID.TID 0000.0001)                   F
(PID.TID 0000.0001)     ;
(PID.TID 0000.0001) PTRACERS_ref = /* Reference vertical profile */
(PID.TID 0000.0001)    15 @  0.000000000000000E+00              /* K =  1: 15 */
(PID.TID 0000.0001)     ;
(PID.TID 0000.0001) PTRACERS_EvPrRn =/* tracer conc. in Evap. & Rain */
(PID.TID 0000.0001)                 1.234567000000000E+05
(PID.TID 0000.0001)     ;
(PID.TID 0000.0001)  -----------------------------------
(PID.TID 0000.0001)  tracer number :   44
(PID.TID 0000.0001) PTRACERS_names = /* Tracer short name */
(PID.TID 0000.0001)               'c27'
(PID.TID 0000.0001)     ;
(PID.TID 0000.0001) PTRACERS_long_names = /* Tracer long name */
(PID.TID 0000.0001)               ''
(PID.TID 0000.0001)     ;
(PID.TID 0000.0001) PTRACERS_ioLabel = /* tracer IO Label */
(PID.TID 0000.0001)               '44'
(PID.TID 0000.0001)     ;
(PID.TID 0000.0001) PTRACERS_advScheme = /* Advection Scheme */
(PID.TID 0000.0001)                      33
(PID.TID 0000.0001)     ;
(PID.TID 0000.0001) PTRACERS_SOM_Advection = /* tracer uses SOM advection scheme */
(PID.TID 0000.0001)                   F
(PID.TID 0000.0001)     ;
(PID.TID 0000.0001) PTRACERS_ImplVertAdv = /* implicit vert. advection flag */
(PID.TID 0000.0001)                   F
(PID.TID 0000.0001)     ;
(PID.TID 0000.0001) PTRACERS_diffKh = /* Laplacian Diffusivity */
(PID.TID 0000.0001)                 0.000000000000000E+00
(PID.TID 0000.0001)     ;
(PID.TID 0000.0001) PTRACERS_diffK4 = /* Biharmonic Diffusivity */
(PID.TID 0000.0001)                 0.000000000000000E+00
(PID.TID 0000.0001)     ;
(PID.TID 0000.0001) PTRACERS_diffKrNr = /* Vertical Diffusivity */
(PID.TID 0000.0001)    15 @  1.000000000000000E-05              /* K =  1: 15 */
(PID.TID 0000.0001)     ;
(PID.TID 0000.0001) PTRACERS_useGMRedi = /* apply GM-Redi */
(PID.TID 0000.0001)                   T
(PID.TID 0000.0001)     ;
(PID.TID 0000.0001) PTRACERS_useDWNSLP = /* apply DOWN-SLOPE Flow */
(PID.TID 0000.0001)                   F
(PID.TID 0000.0001)     ;
(PID.TID 0000.0001) PTRACERS_useKPP = /* apply KPP scheme */
(PID.TID 0000.0001)                   F
(PID.TID 0000.0001)     ;
(PID.TID 0000.0001) PTRACERS_ref = /* Reference vertical profile */
(PID.TID 0000.0001)    15 @  0.000000000000000E+00              /* K =  1: 15 */
(PID.TID 0000.0001)     ;
(PID.TID 0000.0001) PTRACERS_EvPrRn =/* tracer conc. in Evap. & Rain */
(PID.TID 0000.0001)                 1.234567000000000E+05
(PID.TID 0000.0001)     ;
(PID.TID 0000.0001)  -----------------------------------
(PID.TID 0000.0001)  tracer number :   45
(PID.TID 0000.0001) PTRACERS_names = /* Tracer short name */
(PID.TID 0000.0001)               'c28'
(PID.TID 0000.0001)     ;
(PID.TID 0000.0001) PTRACERS_long_names = /* Tracer long name */
(PID.TID 0000.0001)               ''
(PID.TID 0000.0001)     ;
(PID.TID 0000.0001) PTRACERS_ioLabel = /* tracer IO Label */
(PID.TID 0000.0001)               '45'
(PID.TID 0000.0001)     ;
(PID.TID 0000.0001) PTRACERS_advScheme = /* Advection Scheme */
(PID.TID 0000.0001)                      33
(PID.TID 0000.0001)     ;
(PID.TID 0000.0001) PTRACERS_SOM_Advection = /* tracer uses SOM advection scheme */
(PID.TID 0000.0001)                   F
(PID.TID 0000.0001)     ;
(PID.TID 0000.0001) PTRACERS_ImplVertAdv = /* implicit vert. advection flag */
(PID.TID 0000.0001)                   F
(PID.TID 0000.0001)     ;
(PID.TID 0000.0001) PTRACERS_diffKh = /* Laplacian Diffusivity */
(PID.TID 0000.0001)                 0.000000000000000E+00
(PID.TID 0000.0001)     ;
(PID.TID 0000.0001) PTRACERS_diffK4 = /* Biharmonic Diffusivity */
(PID.TID 0000.0001)                 0.000000000000000E+00
(PID.TID 0000.0001)     ;
(PID.TID 0000.0001) PTRACERS_diffKrNr = /* Vertical Diffusivity */
(PID.TID 0000.0001)    15 @  1.000000000000000E-05              /* K =  1: 15 */
(PID.TID 0000.0001)     ;
(PID.TID 0000.0001) PTRACERS_useGMRedi = /* apply GM-Redi */
(PID.TID 0000.0001)                   T
(PID.TID 0000.0001)     ;
(PID.TID 0000.0001) PTRACERS_useDWNSLP = /* apply DOWN-SLOPE Flow */
(PID.TID 0000.0001)                   F
(PID.TID 0000.0001)     ;
(PID.TID 0000.0001) PTRACERS_useKPP = /* apply KPP scheme */
(PID.TID 0000.0001)                   F
(PID.TID 0000.0001)     ;
(PID.TID 0000.0001) PTRACERS_ref = /* Reference vertical profile */
(PID.TID 0000.0001)    15 @  0.000000000000000E+00              /* K =  1: 15 */
(PID.TID 0000.0001)     ;
(PID.TID 0000.0001) PTRACERS_EvPrRn =/* tracer conc. in Evap. & Rain */
(PID.TID 0000.0001)                 1.234567000000000E+05
(PID.TID 0000.0001)     ;
(PID.TID 0000.0001)  -----------------------------------
(PID.TID 0000.0001)  tracer number :   46
(PID.TID 0000.0001) PTRACERS_names = /* Tracer short name */
(PID.TID 0000.0001)               'c29'
(PID.TID 0000.0001)     ;
(PID.TID 0000.0001) PTRACERS_long_names = /* Tracer long name */
(PID.TID 0000.0001)               ''
(PID.TID 0000.0001)     ;
(PID.TID 0000.0001) PTRACERS_ioLabel = /* tracer IO Label */
(PID.TID 0000.0001)               '46'
(PID.TID 0000.0001)     ;
(PID.TID 0000.0001) PTRACERS_advScheme = /* Advection Scheme */
(PID.TID 0000.0001)                      33
(PID.TID 0000.0001)     ;
(PID.TID 0000.0001) PTRACERS_SOM_Advection = /* tracer uses SOM advection scheme */
(PID.TID 0000.0001)                   F
(PID.TID 0000.0001)     ;
(PID.TID 0000.0001) PTRACERS_ImplVertAdv = /* implicit vert. advection flag */
(PID.TID 0000.0001)                   F
(PID.TID 0000.0001)     ;
(PID.TID 0000.0001) PTRACERS_diffKh = /* Laplacian Diffusivity */
(PID.TID 0000.0001)                 0.000000000000000E+00
(PID.TID 0000.0001)     ;
(PID.TID 0000.0001) PTRACERS_diffK4 = /* Biharmonic Diffusivity */
(PID.TID 0000.0001)                 0.000000000000000E+00
(PID.TID 0000.0001)     ;
(PID.TID 0000.0001) PTRACERS_diffKrNr = /* Vertical Diffusivity */
(PID.TID 0000.0001)    15 @  1.000000000000000E-05              /* K =  1: 15 */
(PID.TID 0000.0001)     ;
(PID.TID 0000.0001) PTRACERS_useGMRedi = /* apply GM-Redi */
(PID.TID 0000.0001)                   T
(PID.TID 0000.0001)     ;
(PID.TID 0000.0001) PTRACERS_useDWNSLP = /* apply DOWN-SLOPE Flow */
(PID.TID 0000.0001)                   F
(PID.TID 0000.0001)     ;
(PID.TID 0000.0001) PTRACERS_useKPP = /* apply KPP scheme */
(PID.TID 0000.0001)                   F
(PID.TID 0000.0001)     ;
(PID.TID 0000.0001) PTRACERS_ref = /* Reference vertical profile */
(PID.TID 0000.0001)    15 @  0.000000000000000E+00              /* K =  1: 15 */
(PID.TID 0000.0001)     ;
(PID.TID 0000.0001) PTRACERS_EvPrRn =/* tracer conc. in Evap. & Rain */
(PID.TID 0000.0001)                 1.234567000000000E+05
(PID.TID 0000.0001)     ;
(PID.TID 0000.0001)  -----------------------------------
(PID.TID 0000.0001)  tracer number :   47
(PID.TID 0000.0001) PTRACERS_names = /* Tracer short name */
(PID.TID 0000.0001)               'c30'
(PID.TID 0000.0001)     ;
(PID.TID 0000.0001) PTRACERS_long_names = /* Tracer long name */
(PID.TID 0000.0001)               ''
(PID.TID 0000.0001)     ;
(PID.TID 0000.0001) PTRACERS_ioLabel = /* tracer IO Label */
(PID.TID 0000.0001)               '47'
(PID.TID 0000.0001)     ;
(PID.TID 0000.0001) PTRACERS_advScheme = /* Advection Scheme */
(PID.TID 0000.0001)                      33
(PID.TID 0000.0001)     ;
(PID.TID 0000.0001) PTRACERS_SOM_Advection = /* tracer uses SOM advection scheme */
(PID.TID 0000.0001)                   F
(PID.TID 0000.0001)     ;
(PID.TID 0000.0001) PTRACERS_ImplVertAdv = /* implicit vert. advection flag */
(PID.TID 0000.0001)                   F
(PID.TID 0000.0001)     ;
(PID.TID 0000.0001) PTRACERS_diffKh = /* Laplacian Diffusivity */
(PID.TID 0000.0001)                 0.000000000000000E+00
(PID.TID 0000.0001)     ;
(PID.TID 0000.0001) PTRACERS_diffK4 = /* Biharmonic Diffusivity */
(PID.TID 0000.0001)                 0.000000000000000E+00
(PID.TID 0000.0001)     ;
(PID.TID 0000.0001) PTRACERS_diffKrNr = /* Vertical Diffusivity */
(PID.TID 0000.0001)    15 @  1.000000000000000E-05              /* K =  1: 15 */
(PID.TID 0000.0001)     ;
(PID.TID 0000.0001) PTRACERS_useGMRedi = /* apply GM-Redi */
(PID.TID 0000.0001)                   T
(PID.TID 0000.0001)     ;
(PID.TID 0000.0001) PTRACERS_useDWNSLP = /* apply DOWN-SLOPE Flow */
(PID.TID 0000.0001)                   F
(PID.TID 0000.0001)     ;
(PID.TID 0000.0001) PTRACERS_useKPP = /* apply KPP scheme */
(PID.TID 0000.0001)                   F
(PID.TID 0000.0001)     ;
(PID.TID 0000.0001) PTRACERS_ref = /* Reference vertical profile */
(PID.TID 0000.0001)    15 @  0.000000000000000E+00              /* K =  1: 15 */
(PID.TID 0000.0001)     ;
(PID.TID 0000.0001) PTRACERS_EvPrRn =/* tracer conc. in Evap. & Rain */
(PID.TID 0000.0001)                 1.234567000000000E+05
(PID.TID 0000.0001)     ;
(PID.TID 0000.0001)  -----------------------------------
(PID.TID 0000.0001)  tracer number :   48
(PID.TID 0000.0001) PTRACERS_names = /* Tracer short name */
(PID.TID 0000.0001)               'c31'
(PID.TID 0000.0001)     ;
(PID.TID 0000.0001) PTRACERS_long_names = /* Tracer long name */
(PID.TID 0000.0001)               ''
(PID.TID 0000.0001)     ;
(PID.TID 0000.0001) PTRACERS_ioLabel = /* tracer IO Label */
(PID.TID 0000.0001)               '48'
(PID.TID 0000.0001)     ;
(PID.TID 0000.0001) PTRACERS_advScheme = /* Advection Scheme */
(PID.TID 0000.0001)                      33
(PID.TID 0000.0001)     ;
(PID.TID 0000.0001) PTRACERS_SOM_Advection = /* tracer uses SOM advection scheme */
(PID.TID 0000.0001)                   F
(PID.TID 0000.0001)     ;
(PID.TID 0000.0001) PTRACERS_ImplVertAdv = /* implicit vert. advection flag */
(PID.TID 0000.0001)                   F
(PID.TID 0000.0001)     ;
(PID.TID 0000.0001) PTRACERS_diffKh = /* Laplacian Diffusivity */
(PID.TID 0000.0001)                 0.000000000000000E+00
(PID.TID 0000.0001)     ;
(PID.TID 0000.0001) PTRACERS_diffK4 = /* Biharmonic Diffusivity */
(PID.TID 0000.0001)                 0.000000000000000E+00
(PID.TID 0000.0001)     ;
(PID.TID 0000.0001) PTRACERS_diffKrNr = /* Vertical Diffusivity */
(PID.TID 0000.0001)    15 @  1.000000000000000E-05              /* K =  1: 15 */
(PID.TID 0000.0001)     ;
(PID.TID 0000.0001) PTRACERS_useGMRedi = /* apply GM-Redi */
(PID.TID 0000.0001)                   T
(PID.TID 0000.0001)     ;
(PID.TID 0000.0001) PTRACERS_useDWNSLP = /* apply DOWN-SLOPE Flow */
(PID.TID 0000.0001)                   F
(PID.TID 0000.0001)     ;
(PID.TID 0000.0001) PTRACERS_useKPP = /* apply KPP scheme */
(PID.TID 0000.0001)                   F
(PID.TID 0000.0001)     ;
(PID.TID 0000.0001) PTRACERS_ref = /* Reference vertical profile */
(PID.TID 0000.0001)    15 @  0.000000000000000E+00              /* K =  1: 15 */
(PID.TID 0000.0001)     ;
(PID.TID 0000.0001) PTRACERS_EvPrRn =/* tracer conc. in Evap. & Rain */
(PID.TID 0000.0001)                 1.234567000000000E+05
(PID.TID 0000.0001)     ;
(PID.TID 0000.0001)  -----------------------------------
(PID.TID 0000.0001)  tracer number :   49
(PID.TID 0000.0001) PTRACERS_names = /* Tracer short name */
(PID.TID 0000.0001)               'c32'
(PID.TID 0000.0001)     ;
(PID.TID 0000.0001) PTRACERS_long_names = /* Tracer long name */
(PID.TID 0000.0001)               ''
(PID.TID 0000.0001)     ;
(PID.TID 0000.0001) PTRACERS_ioLabel = /* tracer IO Label */
(PID.TID 0000.0001)               '49'
(PID.TID 0000.0001)     ;
(PID.TID 0000.0001) PTRACERS_advScheme = /* Advection Scheme */
(PID.TID 0000.0001)                      33
(PID.TID 0000.0001)     ;
(PID.TID 0000.0001) PTRACERS_SOM_Advection = /* tracer uses SOM advection scheme */
(PID.TID 0000.0001)                   F
(PID.TID 0000.0001)     ;
(PID.TID 0000.0001) PTRACERS_ImplVertAdv = /* implicit vert. advection flag */
(PID.TID 0000.0001)                   F
(PID.TID 0000.0001)     ;
(PID.TID 0000.0001) PTRACERS_diffKh = /* Laplacian Diffusivity */
(PID.TID 0000.0001)                 0.000000000000000E+00
(PID.TID 0000.0001)     ;
(PID.TID 0000.0001) PTRACERS_diffK4 = /* Biharmonic Diffusivity */
(PID.TID 0000.0001)                 0.000000000000000E+00
(PID.TID 0000.0001)     ;
(PID.TID 0000.0001) PTRACERS_diffKrNr = /* Vertical Diffusivity */
(PID.TID 0000.0001)    15 @  1.000000000000000E-05              /* K =  1: 15 */
(PID.TID 0000.0001)     ;
(PID.TID 0000.0001) PTRACERS_useGMRedi = /* apply GM-Redi */
(PID.TID 0000.0001)                   T
(PID.TID 0000.0001)     ;
(PID.TID 0000.0001) PTRACERS_useDWNSLP = /* apply DOWN-SLOPE Flow */
(PID.TID 0000.0001)                   F
(PID.TID 0000.0001)     ;
(PID.TID 0000.0001) PTRACERS_useKPP = /* apply KPP scheme */
(PID.TID 0000.0001)                   F
(PID.TID 0000.0001)     ;
(PID.TID 0000.0001) PTRACERS_ref = /* Reference vertical profile */
(PID.TID 0000.0001)    15 @  0.000000000000000E+00              /* K =  1: 15 */
(PID.TID 0000.0001)     ;
(PID.TID 0000.0001) PTRACERS_EvPrRn =/* tracer conc. in Evap. & Rain */
(PID.TID 0000.0001)                 1.234567000000000E+05
(PID.TID 0000.0001)     ;
(PID.TID 0000.0001)  -----------------------------------
(PID.TID 0000.0001)  tracer number :   50
(PID.TID 0000.0001) PTRACERS_names = /* Tracer short name */
(PID.TID 0000.0001)               'c33'
(PID.TID 0000.0001)     ;
(PID.TID 0000.0001) PTRACERS_long_names = /* Tracer long name */
(PID.TID 0000.0001)               ''
(PID.TID 0000.0001)     ;
(PID.TID 0000.0001) PTRACERS_ioLabel = /* tracer IO Label */
(PID.TID 0000.0001)               '50'
(PID.TID 0000.0001)     ;
(PID.TID 0000.0001) PTRACERS_advScheme = /* Advection Scheme */
(PID.TID 0000.0001)                      33
(PID.TID 0000.0001)     ;
(PID.TID 0000.0001) PTRACERS_SOM_Advection = /* tracer uses SOM advection scheme */
(PID.TID 0000.0001)                   F
(PID.TID 0000.0001)     ;
(PID.TID 0000.0001) PTRACERS_ImplVertAdv = /* implicit vert. advection flag */
(PID.TID 0000.0001)                   F
(PID.TID 0000.0001)     ;
(PID.TID 0000.0001) PTRACERS_diffKh = /* Laplacian Diffusivity */
(PID.TID 0000.0001)                 0.000000000000000E+00
(PID.TID 0000.0001)     ;
(PID.TID 0000.0001) PTRACERS_diffK4 = /* Biharmonic Diffusivity */
(PID.TID 0000.0001)                 0.000000000000000E+00
(PID.TID 0000.0001)     ;
(PID.TID 0000.0001) PTRACERS_diffKrNr = /* Vertical Diffusivity */
(PID.TID 0000.0001)    15 @  1.000000000000000E-05              /* K =  1: 15 */
(PID.TID 0000.0001)     ;
(PID.TID 0000.0001) PTRACERS_useGMRedi = /* apply GM-Redi */
(PID.TID 0000.0001)                   T
(PID.TID 0000.0001)     ;
(PID.TID 0000.0001) PTRACERS_useDWNSLP = /* apply DOWN-SLOPE Flow */
(PID.TID 0000.0001)                   F
(PID.TID 0000.0001)     ;
(PID.TID 0000.0001) PTRACERS_useKPP = /* apply KPP scheme */
(PID.TID 0000.0001)                   F
(PID.TID 0000.0001)     ;
(PID.TID 0000.0001) PTRACERS_ref = /* Reference vertical profile */
(PID.TID 0000.0001)    15 @  0.000000000000000E+00              /* K =  1: 15 */
(PID.TID 0000.0001)     ;
(PID.TID 0000.0001) PTRACERS_EvPrRn =/* tracer conc. in Evap. & Rain */
(PID.TID 0000.0001)                 1.234567000000000E+05
(PID.TID 0000.0001)     ;
(PID.TID 0000.0001)  -----------------------------------
(PID.TID 0000.0001)  tracer number :   51
(PID.TID 0000.0001) PTRACERS_names = /* Tracer short name */
(PID.TID 0000.0001)               'c34'
(PID.TID 0000.0001)     ;
(PID.TID 0000.0001) PTRACERS_long_names = /* Tracer long name */
(PID.TID 0000.0001)               ''
(PID.TID 0000.0001)     ;
(PID.TID 0000.0001) PTRACERS_ioLabel = /* tracer IO Label */
(PID.TID 0000.0001)               '51'
(PID.TID 0000.0001)     ;
(PID.TID 0000.0001) PTRACERS_advScheme = /* Advection Scheme */
(PID.TID 0000.0001)                      33
(PID.TID 0000.0001)     ;
(PID.TID 0000.0001) PTRACERS_SOM_Advection = /* tracer uses SOM advection scheme */
(PID.TID 0000.0001)                   F
(PID.TID 0000.0001)     ;
(PID.TID 0000.0001) PTRACERS_ImplVertAdv = /* implicit vert. advection flag */
(PID.TID 0000.0001)                   F
(PID.TID 0000.0001)     ;
(PID.TID 0000.0001) PTRACERS_diffKh = /* Laplacian Diffusivity */
(PID.TID 0000.0001)                 0.000000000000000E+00
(PID.TID 0000.0001)     ;
(PID.TID 0000.0001) PTRACERS_diffK4 = /* Biharmonic Diffusivity */
(PID.TID 0000.0001)                 0.000000000000000E+00
(PID.TID 0000.0001)     ;
(PID.TID 0000.0001) PTRACERS_diffKrNr = /* Vertical Diffusivity */
(PID.TID 0000.0001)    15 @  1.000000000000000E-05              /* K =  1: 15 */
(PID.TID 0000.0001)     ;
(PID.TID 0000.0001) PTRACERS_useGMRedi = /* apply GM-Redi */
(PID.TID 0000.0001)                   T
(PID.TID 0000.0001)     ;
(PID.TID 0000.0001) PTRACERS_useDWNSLP = /* apply DOWN-SLOPE Flow */
(PID.TID 0000.0001)                   F
(PID.TID 0000.0001)     ;
(PID.TID 0000.0001) PTRACERS_useKPP = /* apply KPP scheme */
(PID.TID 0000.0001)                   F
(PID.TID 0000.0001)     ;
(PID.TID 0000.0001) PTRACERS_ref = /* Reference vertical profile */
(PID.TID 0000.0001)    15 @  0.000000000000000E+00              /* K =  1: 15 */
(PID.TID 0000.0001)     ;
(PID.TID 0000.0001) PTRACERS_EvPrRn =/* tracer conc. in Evap. & Rain */
(PID.TID 0000.0001)                 1.234567000000000E+05
(PID.TID 0000.0001)     ;
(PID.TID 0000.0001)  -----------------------------------
(PID.TID 0000.0001)  tracer number :   52
(PID.TID 0000.0001) PTRACERS_names = /* Tracer short name */
(PID.TID 0000.0001)               'c35'
(PID.TID 0000.0001)     ;
(PID.TID 0000.0001) PTRACERS_long_names = /* Tracer long name */
(PID.TID 0000.0001)               ''
(PID.TID 0000.0001)     ;
(PID.TID 0000.0001) PTRACERS_ioLabel = /* tracer IO Label */
(PID.TID 0000.0001)               '52'
(PID.TID 0000.0001)     ;
(PID.TID 0000.0001) PTRACERS_advScheme = /* Advection Scheme */
(PID.TID 0000.0001)                      33
(PID.TID 0000.0001)     ;
(PID.TID 0000.0001) PTRACERS_SOM_Advection = /* tracer uses SOM advection scheme */
(PID.TID 0000.0001)                   F
(PID.TID 0000.0001)     ;
(PID.TID 0000.0001) PTRACERS_ImplVertAdv = /* implicit vert. advection flag */
(PID.TID 0000.0001)                   F
(PID.TID 0000.0001)     ;
(PID.TID 0000.0001) PTRACERS_diffKh = /* Laplacian Diffusivity */
(PID.TID 0000.0001)                 0.000000000000000E+00
(PID.TID 0000.0001)     ;
(PID.TID 0000.0001) PTRACERS_diffK4 = /* Biharmonic Diffusivity */
(PID.TID 0000.0001)                 0.000000000000000E+00
(PID.TID 0000.0001)     ;
(PID.TID 0000.0001) PTRACERS_diffKrNr = /* Vertical Diffusivity */
(PID.TID 0000.0001)    15 @  1.000000000000000E-05              /* K =  1: 15 */
(PID.TID 0000.0001)     ;
(PID.TID 0000.0001) PTRACERS_useGMRedi = /* apply GM-Redi */
(PID.TID 0000.0001)                   T
(PID.TID 0000.0001)     ;
(PID.TID 0000.0001) PTRACERS_useDWNSLP = /* apply DOWN-SLOPE Flow */
(PID.TID 0000.0001)                   F
(PID.TID 0000.0001)     ;
(PID.TID 0000.0001) PTRACERS_useKPP = /* apply KPP scheme */
(PID.TID 0000.0001)                   F
(PID.TID 0000.0001)     ;
(PID.TID 0000.0001) PTRACERS_ref = /* Reference vertical profile */
(PID.TID 0000.0001)    15 @  0.000000000000000E+00              /* K =  1: 15 */
(PID.TID 0000.0001)     ;
(PID.TID 0000.0001) PTRACERS_EvPrRn =/* tracer conc. in Evap. & Rain */
(PID.TID 0000.0001)                 1.234567000000000E+05
(PID.TID 0000.0001)     ;
(PID.TID 0000.0001)  -----------------------------------
(PID.TID 0000.0001)  tracer number :   53
(PID.TID 0000.0001) PTRACERS_names = /* Tracer short name */
(PID.TID 0000.0001)               'c36'
(PID.TID 0000.0001)     ;
(PID.TID 0000.0001) PTRACERS_long_names = /* Tracer long name */
(PID.TID 0000.0001)               ''
(PID.TID 0000.0001)     ;
(PID.TID 0000.0001) PTRACERS_ioLabel = /* tracer IO Label */
(PID.TID 0000.0001)               '53'
(PID.TID 0000.0001)     ;
(PID.TID 0000.0001) PTRACERS_advScheme = /* Advection Scheme */
(PID.TID 0000.0001)                      33
(PID.TID 0000.0001)     ;
(PID.TID 0000.0001) PTRACERS_SOM_Advection = /* tracer uses SOM advection scheme */
(PID.TID 0000.0001)                   F
(PID.TID 0000.0001)     ;
(PID.TID 0000.0001) PTRACERS_ImplVertAdv = /* implicit vert. advection flag */
(PID.TID 0000.0001)                   F
(PID.TID 0000.0001)     ;
(PID.TID 0000.0001) PTRACERS_diffKh = /* Laplacian Diffusivity */
(PID.TID 0000.0001)                 0.000000000000000E+00
(PID.TID 0000.0001)     ;
(PID.TID 0000.0001) PTRACERS_diffK4 = /* Biharmonic Diffusivity */
(PID.TID 0000.0001)                 0.000000000000000E+00
(PID.TID 0000.0001)     ;
(PID.TID 0000.0001) PTRACERS_diffKrNr = /* Vertical Diffusivity */
(PID.TID 0000.0001)    15 @  1.000000000000000E-05              /* K =  1: 15 */
(PID.TID 0000.0001)     ;
(PID.TID 0000.0001) PTRACERS_useGMRedi = /* apply GM-Redi */
(PID.TID 0000.0001)                   T
(PID.TID 0000.0001)     ;
(PID.TID 0000.0001) PTRACERS_useDWNSLP = /* apply DOWN-SLOPE Flow */
(PID.TID 0000.0001)                   F
(PID.TID 0000.0001)     ;
(PID.TID 0000.0001) PTRACERS_useKPP = /* apply KPP scheme */
(PID.TID 0000.0001)                   F
(PID.TID 0000.0001)     ;
(PID.TID 0000.0001) PTRACERS_ref = /* Reference vertical profile */
(PID.TID 0000.0001)    15 @  0.000000000000000E+00              /* K =  1: 15 */
(PID.TID 0000.0001)     ;
(PID.TID 0000.0001) PTRACERS_EvPrRn =/* tracer conc. in Evap. & Rain */
(PID.TID 0000.0001)                 1.234567000000000E+05
(PID.TID 0000.0001)     ;
(PID.TID 0000.0001)  -----------------------------------
(PID.TID 0000.0001)  tracer number :   54
(PID.TID 0000.0001) PTRACERS_names = /* Tracer short name */
(PID.TID 0000.0001)               'c37'
(PID.TID 0000.0001)     ;
(PID.TID 0000.0001) PTRACERS_long_names = /* Tracer long name */
(PID.TID 0000.0001)               ''
(PID.TID 0000.0001)     ;
(PID.TID 0000.0001) PTRACERS_ioLabel = /* tracer IO Label */
(PID.TID 0000.0001)               '54'
(PID.TID 0000.0001)     ;
(PID.TID 0000.0001) PTRACERS_advScheme = /* Advection Scheme */
(PID.TID 0000.0001)                      33
(PID.TID 0000.0001)     ;
(PID.TID 0000.0001) PTRACERS_SOM_Advection = /* tracer uses SOM advection scheme */
(PID.TID 0000.0001)                   F
(PID.TID 0000.0001)     ;
(PID.TID 0000.0001) PTRACERS_ImplVertAdv = /* implicit vert. advection flag */
(PID.TID 0000.0001)                   F
(PID.TID 0000.0001)     ;
(PID.TID 0000.0001) PTRACERS_diffKh = /* Laplacian Diffusivity */
(PID.TID 0000.0001)                 0.000000000000000E+00
(PID.TID 0000.0001)     ;
(PID.TID 0000.0001) PTRACERS_diffK4 = /* Biharmonic Diffusivity */
(PID.TID 0000.0001)                 0.000000000000000E+00
(PID.TID 0000.0001)     ;
(PID.TID 0000.0001) PTRACERS_diffKrNr = /* Vertical Diffusivity */
(PID.TID 0000.0001)    15 @  1.000000000000000E-05              /* K =  1: 15 */
(PID.TID 0000.0001)     ;
(PID.TID 0000.0001) PTRACERS_useGMRedi = /* apply GM-Redi */
(PID.TID 0000.0001)                   T
(PID.TID 0000.0001)     ;
(PID.TID 0000.0001) PTRACERS_useDWNSLP = /* apply DOWN-SLOPE Flow */
(PID.TID 0000.0001)                   F
(PID.TID 0000.0001)     ;
(PID.TID 0000.0001) PTRACERS_useKPP = /* apply KPP scheme */
(PID.TID 0000.0001)                   F
(PID.TID 0000.0001)     ;
(PID.TID 0000.0001) PTRACERS_ref = /* Reference vertical profile */
(PID.TID 0000.0001)    15 @  0.000000000000000E+00              /* K =  1: 15 */
(PID.TID 0000.0001)     ;
(PID.TID 0000.0001) PTRACERS_EvPrRn =/* tracer conc. in Evap. & Rain */
(PID.TID 0000.0001)                 1.234567000000000E+05
(PID.TID 0000.0001)     ;
(PID.TID 0000.0001)  -----------------------------------
(PID.TID 0000.0001)  tracer number :   55
(PID.TID 0000.0001) PTRACERS_names = /* Tracer short name */
(PID.TID 0000.0001)               'c38'
(PID.TID 0000.0001)     ;
(PID.TID 0000.0001) PTRACERS_long_names = /* Tracer long name */
(PID.TID 0000.0001)               ''
(PID.TID 0000.0001)     ;
(PID.TID 0000.0001) PTRACERS_ioLabel = /* tracer IO Label */
(PID.TID 0000.0001)               '55'
(PID.TID 0000.0001)     ;
(PID.TID 0000.0001) PTRACERS_advScheme = /* Advection Scheme */
(PID.TID 0000.0001)                      33
(PID.TID 0000.0001)     ;
(PID.TID 0000.0001) PTRACERS_SOM_Advection = /* tracer uses SOM advection scheme */
(PID.TID 0000.0001)                   F
(PID.TID 0000.0001)     ;
(PID.TID 0000.0001) PTRACERS_ImplVertAdv = /* implicit vert. advection flag */
(PID.TID 0000.0001)                   F
(PID.TID 0000.0001)     ;
(PID.TID 0000.0001) PTRACERS_diffKh = /* Laplacian Diffusivity */
(PID.TID 0000.0001)                 0.000000000000000E+00
(PID.TID 0000.0001)     ;
(PID.TID 0000.0001) PTRACERS_diffK4 = /* Biharmonic Diffusivity */
(PID.TID 0000.0001)                 0.000000000000000E+00
(PID.TID 0000.0001)     ;
(PID.TID 0000.0001) PTRACERS_diffKrNr = /* Vertical Diffusivity */
(PID.TID 0000.0001)    15 @  1.000000000000000E-05              /* K =  1: 15 */
(PID.TID 0000.0001)     ;
(PID.TID 0000.0001) PTRACERS_useGMRedi = /* apply GM-Redi */
(PID.TID 0000.0001)                   T
(PID.TID 0000.0001)     ;
(PID.TID 0000.0001) PTRACERS_useDWNSLP = /* apply DOWN-SLOPE Flow */
(PID.TID 0000.0001)                   F
(PID.TID 0000.0001)     ;
(PID.TID 0000.0001) PTRACERS_useKPP = /* apply KPP scheme */
(PID.TID 0000.0001)                   F
(PID.TID 0000.0001)     ;
(PID.TID 0000.0001) PTRACERS_ref = /* Reference vertical profile */
(PID.TID 0000.0001)    15 @  0.000000000000000E+00              /* K =  1: 15 */
(PID.TID 0000.0001)     ;
(PID.TID 0000.0001) PTRACERS_EvPrRn =/* tracer conc. in Evap. & Rain */
(PID.TID 0000.0001)                 1.234567000000000E+05
(PID.TID 0000.0001)     ;
(PID.TID 0000.0001)  -----------------------------------
(PID.TID 0000.0001)  tracer number :   56
(PID.TID 0000.0001) PTRACERS_names = /* Tracer short name */
(PID.TID 0000.0001)               'c39'
(PID.TID 0000.0001)     ;
(PID.TID 0000.0001) PTRACERS_long_names = /* Tracer long name */
(PID.TID 0000.0001)               ''
(PID.TID 0000.0001)     ;
(PID.TID 0000.0001) PTRACERS_ioLabel = /* tracer IO Label */
(PID.TID 0000.0001)               '56'
(PID.TID 0000.0001)     ;
(PID.TID 0000.0001) PTRACERS_advScheme = /* Advection Scheme */
(PID.TID 0000.0001)                      33
(PID.TID 0000.0001)     ;
(PID.TID 0000.0001) PTRACERS_SOM_Advection = /* tracer uses SOM advection scheme */
(PID.TID 0000.0001)                   F
(PID.TID 0000.0001)     ;
(PID.TID 0000.0001) PTRACERS_ImplVertAdv = /* implicit vert. advection flag */
(PID.TID 0000.0001)                   F
(PID.TID 0000.0001)     ;
(PID.TID 0000.0001) PTRACERS_diffKh = /* Laplacian Diffusivity */
(PID.TID 0000.0001)                 0.000000000000000E+00
(PID.TID 0000.0001)     ;
(PID.TID 0000.0001) PTRACERS_diffK4 = /* Biharmonic Diffusivity */
(PID.TID 0000.0001)                 0.000000000000000E+00
(PID.TID 0000.0001)     ;
(PID.TID 0000.0001) PTRACERS_diffKrNr = /* Vertical Diffusivity */
(PID.TID 0000.0001)    15 @  1.000000000000000E-05              /* K =  1: 15 */
(PID.TID 0000.0001)     ;
(PID.TID 0000.0001) PTRACERS_useGMRedi = /* apply GM-Redi */
(PID.TID 0000.0001)                   T
(PID.TID 0000.0001)     ;
(PID.TID 0000.0001) PTRACERS_useDWNSLP = /* apply DOWN-SLOPE Flow */
(PID.TID 0000.0001)                   F
(PID.TID 0000.0001)     ;
(PID.TID 0000.0001) PTRACERS_useKPP = /* apply KPP scheme */
(PID.TID 0000.0001)                   F
(PID.TID 0000.0001)     ;
(PID.TID 0000.0001) PTRACERS_ref = /* Reference vertical profile */
(PID.TID 0000.0001)    15 @  0.000000000000000E+00              /* K =  1: 15 */
(PID.TID 0000.0001)     ;
(PID.TID 0000.0001) PTRACERS_EvPrRn =/* tracer conc. in Evap. & Rain */
(PID.TID 0000.0001)                 1.234567000000000E+05
(PID.TID 0000.0001)     ;
(PID.TID 0000.0001)  -----------------------------------
(PID.TID 0000.0001)  tracer number :   57
(PID.TID 0000.0001) PTRACERS_names = /* Tracer short name */
(PID.TID 0000.0001)               'c40'
(PID.TID 0000.0001)     ;
(PID.TID 0000.0001) PTRACERS_long_names = /* Tracer long name */
(PID.TID 0000.0001)               ''
(PID.TID 0000.0001)     ;
(PID.TID 0000.0001) PTRACERS_ioLabel = /* tracer IO Label */
(PID.TID 0000.0001)               '57'
(PID.TID 0000.0001)     ;
(PID.TID 0000.0001) PTRACERS_advScheme = /* Advection Scheme */
(PID.TID 0000.0001)                      33
(PID.TID 0000.0001)     ;
(PID.TID 0000.0001) PTRACERS_SOM_Advection = /* tracer uses SOM advection scheme */
(PID.TID 0000.0001)                   F
(PID.TID 0000.0001)     ;
(PID.TID 0000.0001) PTRACERS_ImplVertAdv = /* implicit vert. advection flag */
(PID.TID 0000.0001)                   F
(PID.TID 0000.0001)     ;
(PID.TID 0000.0001) PTRACERS_diffKh = /* Laplacian Diffusivity */
(PID.TID 0000.0001)                 0.000000000000000E+00
(PID.TID 0000.0001)     ;
(PID.TID 0000.0001) PTRACERS_diffK4 = /* Biharmonic Diffusivity */
(PID.TID 0000.0001)                 0.000000000000000E+00
(PID.TID 0000.0001)     ;
(PID.TID 0000.0001) PTRACERS_diffKrNr = /* Vertical Diffusivity */
(PID.TID 0000.0001)    15 @  1.000000000000000E-05              /* K =  1: 15 */
(PID.TID 0000.0001)     ;
(PID.TID 0000.0001) PTRACERS_useGMRedi = /* apply GM-Redi */
(PID.TID 0000.0001)                   T
(PID.TID 0000.0001)     ;
(PID.TID 0000.0001) PTRACERS_useDWNSLP = /* apply DOWN-SLOPE Flow */
(PID.TID 0000.0001)                   F
(PID.TID 0000.0001)     ;
(PID.TID 0000.0001) PTRACERS_useKPP = /* apply KPP scheme */
(PID.TID 0000.0001)                   F
(PID.TID 0000.0001)     ;
(PID.TID 0000.0001) PTRACERS_ref = /* Reference vertical profile */
(PID.TID 0000.0001)    15 @  0.000000000000000E+00              /* K =  1: 15 */
(PID.TID 0000.0001)     ;
(PID.TID 0000.0001) PTRACERS_EvPrRn =/* tracer conc. in Evap. & Rain */
(PID.TID 0000.0001)                 1.234567000000000E+05
(PID.TID 0000.0001)     ;
(PID.TID 0000.0001)  -----------------------------------
(PID.TID 0000.0001)  tracer number :   58
(PID.TID 0000.0001) PTRACERS_names = /* Tracer short name */
(PID.TID 0000.0001)               'c41'
(PID.TID 0000.0001)     ;
(PID.TID 0000.0001) PTRACERS_long_names = /* Tracer long name */
(PID.TID 0000.0001)               ''
(PID.TID 0000.0001)     ;
(PID.TID 0000.0001) PTRACERS_ioLabel = /* tracer IO Label */
(PID.TID 0000.0001)               '58'
(PID.TID 0000.0001)     ;
(PID.TID 0000.0001) PTRACERS_advScheme = /* Advection Scheme */
(PID.TID 0000.0001)                      33
(PID.TID 0000.0001)     ;
(PID.TID 0000.0001) PTRACERS_SOM_Advection = /* tracer uses SOM advection scheme */
(PID.TID 0000.0001)                   F
(PID.TID 0000.0001)     ;
(PID.TID 0000.0001) PTRACERS_ImplVertAdv = /* implicit vert. advection flag */
(PID.TID 0000.0001)                   F
(PID.TID 0000.0001)     ;
(PID.TID 0000.0001) PTRACERS_diffKh = /* Laplacian Diffusivity */
(PID.TID 0000.0001)                 0.000000000000000E+00
(PID.TID 0000.0001)     ;
(PID.TID 0000.0001) PTRACERS_diffK4 = /* Biharmonic Diffusivity */
(PID.TID 0000.0001)                 0.000000000000000E+00
(PID.TID 0000.0001)     ;
(PID.TID 0000.0001) PTRACERS_diffKrNr = /* Vertical Diffusivity */
(PID.TID 0000.0001)    15 @  1.000000000000000E-05              /* K =  1: 15 */
(PID.TID 0000.0001)     ;
(PID.TID 0000.0001) PTRACERS_useGMRedi = /* apply GM-Redi */
(PID.TID 0000.0001)                   T
(PID.TID 0000.0001)     ;
(PID.TID 0000.0001) PTRACERS_useDWNSLP = /* apply DOWN-SLOPE Flow */
(PID.TID 0000.0001)                   F
(PID.TID 0000.0001)     ;
(PID.TID 0000.0001) PTRACERS_useKPP = /* apply KPP scheme */
(PID.TID 0000.0001)                   F
(PID.TID 0000.0001)     ;
(PID.TID 0000.0001) PTRACERS_ref = /* Reference vertical profile */
(PID.TID 0000.0001)    15 @  0.000000000000000E+00              /* K =  1: 15 */
(PID.TID 0000.0001)     ;
(PID.TID 0000.0001) PTRACERS_EvPrRn =/* tracer conc. in Evap. & Rain */
(PID.TID 0000.0001)                 1.234567000000000E+05
(PID.TID 0000.0001)     ;
(PID.TID 0000.0001)  -----------------------------------
(PID.TID 0000.0001)  tracer number :   59
(PID.TID 0000.0001) PTRACERS_names = /* Tracer short name */
(PID.TID 0000.0001)               'c42'
(PID.TID 0000.0001)     ;
(PID.TID 0000.0001) PTRACERS_long_names = /* Tracer long name */
(PID.TID 0000.0001)               ''
(PID.TID 0000.0001)     ;
(PID.TID 0000.0001) PTRACERS_ioLabel = /* tracer IO Label */
(PID.TID 0000.0001)               '59'
(PID.TID 0000.0001)     ;
(PID.TID 0000.0001) PTRACERS_advScheme = /* Advection Scheme */
(PID.TID 0000.0001)                      33
(PID.TID 0000.0001)     ;
(PID.TID 0000.0001) PTRACERS_SOM_Advection = /* tracer uses SOM advection scheme */
(PID.TID 0000.0001)                   F
(PID.TID 0000.0001)     ;
(PID.TID 0000.0001) PTRACERS_ImplVertAdv = /* implicit vert. advection flag */
(PID.TID 0000.0001)                   F
(PID.TID 0000.0001)     ;
(PID.TID 0000.0001) PTRACERS_diffKh = /* Laplacian Diffusivity */
(PID.TID 0000.0001)                 0.000000000000000E+00
(PID.TID 0000.0001)     ;
(PID.TID 0000.0001) PTRACERS_diffK4 = /* Biharmonic Diffusivity */
(PID.TID 0000.0001)                 0.000000000000000E+00
(PID.TID 0000.0001)     ;
(PID.TID 0000.0001) PTRACERS_diffKrNr = /* Vertical Diffusivity */
(PID.TID 0000.0001)    15 @  1.000000000000000E-05              /* K =  1: 15 */
(PID.TID 0000.0001)     ;
(PID.TID 0000.0001) PTRACERS_useGMRedi = /* apply GM-Redi */
(PID.TID 0000.0001)                   T
(PID.TID 0000.0001)     ;
(PID.TID 0000.0001) PTRACERS_useDWNSLP = /* apply DOWN-SLOPE Flow */
(PID.TID 0000.0001)                   F
(PID.TID 0000.0001)     ;
(PID.TID 0000.0001) PTRACERS_useKPP = /* apply KPP scheme */
(PID.TID 0000.0001)                   F
(PID.TID 0000.0001)     ;
(PID.TID 0000.0001) PTRACERS_ref = /* Reference vertical profile */
(PID.TID 0000.0001)    15 @  0.000000000000000E+00              /* K =  1: 15 */
(PID.TID 0000.0001)     ;
(PID.TID 0000.0001) PTRACERS_EvPrRn =/* tracer conc. in Evap. & Rain */
(PID.TID 0000.0001)                 1.234567000000000E+05
(PID.TID 0000.0001)     ;
(PID.TID 0000.0001)  -----------------------------------
(PID.TID 0000.0001)  tracer number :   60
(PID.TID 0000.0001) PTRACERS_names = /* Tracer short name */
(PID.TID 0000.0001)               'c43'
(PID.TID 0000.0001)     ;
(PID.TID 0000.0001) PTRACERS_long_names = /* Tracer long name */
(PID.TID 0000.0001)               ''
(PID.TID 0000.0001)     ;
(PID.TID 0000.0001) PTRACERS_ioLabel = /* tracer IO Label */
(PID.TID 0000.0001)               '60'
(PID.TID 0000.0001)     ;
(PID.TID 0000.0001) PTRACERS_advScheme = /* Advection Scheme */
(PID.TID 0000.0001)                      33
(PID.TID 0000.0001)     ;
(PID.TID 0000.0001) PTRACERS_SOM_Advection = /* tracer uses SOM advection scheme */
(PID.TID 0000.0001)                   F
(PID.TID 0000.0001)     ;
(PID.TID 0000.0001) PTRACERS_ImplVertAdv = /* implicit vert. advection flag */
(PID.TID 0000.0001)                   F
(PID.TID 0000.0001)     ;
(PID.TID 0000.0001) PTRACERS_diffKh = /* Laplacian Diffusivity */
(PID.TID 0000.0001)                 0.000000000000000E+00
(PID.TID 0000.0001)     ;
(PID.TID 0000.0001) PTRACERS_diffK4 = /* Biharmonic Diffusivity */
(PID.TID 0000.0001)                 0.000000000000000E+00
(PID.TID 0000.0001)     ;
(PID.TID 0000.0001) PTRACERS_diffKrNr = /* Vertical Diffusivity */
(PID.TID 0000.0001)    15 @  1.000000000000000E-05              /* K =  1: 15 */
(PID.TID 0000.0001)     ;
(PID.TID 0000.0001) PTRACERS_useGMRedi = /* apply GM-Redi */
(PID.TID 0000.0001)                   T
(PID.TID 0000.0001)     ;
(PID.TID 0000.0001) PTRACERS_useDWNSLP = /* apply DOWN-SLOPE Flow */
(PID.TID 0000.0001)                   F
(PID.TID 0000.0001)     ;
(PID.TID 0000.0001) PTRACERS_useKPP = /* apply KPP scheme */
(PID.TID 0000.0001)                   F
(PID.TID 0000.0001)     ;
(PID.TID 0000.0001) PTRACERS_ref = /* Reference vertical profile */
(PID.TID 0000.0001)    15 @  0.000000000000000E+00              /* K =  1: 15 */
(PID.TID 0000.0001)     ;
(PID.TID 0000.0001) PTRACERS_EvPrRn =/* tracer conc. in Evap. & Rain */
(PID.TID 0000.0001)                 1.234567000000000E+05
(PID.TID 0000.0001)     ;
(PID.TID 0000.0001)  -----------------------------------
(PID.TID 0000.0001)  tracer number :   61
(PID.TID 0000.0001) PTRACERS_names = /* Tracer short name */
(PID.TID 0000.0001)               'c44'
(PID.TID 0000.0001)     ;
(PID.TID 0000.0001) PTRACERS_long_names = /* Tracer long name */
(PID.TID 0000.0001)               ''
(PID.TID 0000.0001)     ;
(PID.TID 0000.0001) PTRACERS_ioLabel = /* tracer IO Label */
(PID.TID 0000.0001)               '61'
(PID.TID 0000.0001)     ;
(PID.TID 0000.0001) PTRACERS_advScheme = /* Advection Scheme */
(PID.TID 0000.0001)                      33
(PID.TID 0000.0001)     ;
(PID.TID 0000.0001) PTRACERS_SOM_Advection = /* tracer uses SOM advection scheme */
(PID.TID 0000.0001)                   F
(PID.TID 0000.0001)     ;
(PID.TID 0000.0001) PTRACERS_ImplVertAdv = /* implicit vert. advection flag */
(PID.TID 0000.0001)                   F
(PID.TID 0000.0001)     ;
(PID.TID 0000.0001) PTRACERS_diffKh = /* Laplacian Diffusivity */
(PID.TID 0000.0001)                 0.000000000000000E+00
(PID.TID 0000.0001)     ;
(PID.TID 0000.0001) PTRACERS_diffK4 = /* Biharmonic Diffusivity */
(PID.TID 0000.0001)                 0.000000000000000E+00
(PID.TID 0000.0001)     ;
(PID.TID 0000.0001) PTRACERS_diffKrNr = /* Vertical Diffusivity */
(PID.TID 0000.0001)    15 @  1.000000000000000E-05              /* K =  1: 15 */
(PID.TID 0000.0001)     ;
(PID.TID 0000.0001) PTRACERS_useGMRedi = /* apply GM-Redi */
(PID.TID 0000.0001)                   T
(PID.TID 0000.0001)     ;
(PID.TID 0000.0001) PTRACERS_useDWNSLP = /* apply DOWN-SLOPE Flow */
(PID.TID 0000.0001)                   F
(PID.TID 0000.0001)     ;
(PID.TID 0000.0001) PTRACERS_useKPP = /* apply KPP scheme */
(PID.TID 0000.0001)                   F
(PID.TID 0000.0001)     ;
(PID.TID 0000.0001) PTRACERS_ref = /* Reference vertical profile */
(PID.TID 0000.0001)    15 @  0.000000000000000E+00              /* K =  1: 15 */
(PID.TID 0000.0001)     ;
(PID.TID 0000.0001) PTRACERS_EvPrRn =/* tracer conc. in Evap. & Rain */
(PID.TID 0000.0001)                 1.234567000000000E+05
(PID.TID 0000.0001)     ;
(PID.TID 0000.0001)  -----------------------------------
(PID.TID 0000.0001)  tracer number :   62
(PID.TID 0000.0001) PTRACERS_names = /* Tracer short name */
(PID.TID 0000.0001)               'c45'
(PID.TID 0000.0001)     ;
(PID.TID 0000.0001) PTRACERS_long_names = /* Tracer long name */
(PID.TID 0000.0001)               ''
(PID.TID 0000.0001)     ;
(PID.TID 0000.0001) PTRACERS_ioLabel = /* tracer IO Label */
(PID.TID 0000.0001)               '62'
(PID.TID 0000.0001)     ;
(PID.TID 0000.0001) PTRACERS_advScheme = /* Advection Scheme */
(PID.TID 0000.0001)                      33
(PID.TID 0000.0001)     ;
(PID.TID 0000.0001) PTRACERS_SOM_Advection = /* tracer uses SOM advection scheme */
(PID.TID 0000.0001)                   F
(PID.TID 0000.0001)     ;
(PID.TID 0000.0001) PTRACERS_ImplVertAdv = /* implicit vert. advection flag */
(PID.TID 0000.0001)                   F
(PID.TID 0000.0001)     ;
(PID.TID 0000.0001) PTRACERS_diffKh = /* Laplacian Diffusivity */
(PID.TID 0000.0001)                 0.000000000000000E+00
(PID.TID 0000.0001)     ;
(PID.TID 0000.0001) PTRACERS_diffK4 = /* Biharmonic Diffusivity */
(PID.TID 0000.0001)                 0.000000000000000E+00
(PID.TID 0000.0001)     ;
(PID.TID 0000.0001) PTRACERS_diffKrNr = /* Vertical Diffusivity */
(PID.TID 0000.0001)    15 @  1.000000000000000E-05              /* K =  1: 15 */
(PID.TID 0000.0001)     ;
(PID.TID 0000.0001) PTRACERS_useGMRedi = /* apply GM-Redi */
(PID.TID 0000.0001)                   T
(PID.TID 0000.0001)     ;
(PID.TID 0000.0001) PTRACERS_useDWNSLP = /* apply DOWN-SLOPE Flow */
(PID.TID 0000.0001)                   F
(PID.TID 0000.0001)     ;
(PID.TID 0000.0001) PTRACERS_useKPP = /* apply KPP scheme */
(PID.TID 0000.0001)                   F
(PID.TID 0000.0001)     ;
(PID.TID 0000.0001) PTRACERS_ref = /* Reference vertical profile */
(PID.TID 0000.0001)    15 @  0.000000000000000E+00              /* K =  1: 15 */
(PID.TID 0000.0001)     ;
(PID.TID 0000.0001) PTRACERS_EvPrRn =/* tracer conc. in Evap. & Rain */
(PID.TID 0000.0001)                 1.234567000000000E+05
(PID.TID 0000.0001)     ;
(PID.TID 0000.0001)  -----------------------------------
(PID.TID 0000.0001)  tracer number :   63
(PID.TID 0000.0001) PTRACERS_names = /* Tracer short name */
(PID.TID 0000.0001)               'c46'
(PID.TID 0000.0001)     ;
(PID.TID 0000.0001) PTRACERS_long_names = /* Tracer long name */
(PID.TID 0000.0001)               ''
(PID.TID 0000.0001)     ;
(PID.TID 0000.0001) PTRACERS_ioLabel = /* tracer IO Label */
(PID.TID 0000.0001)               '63'
(PID.TID 0000.0001)     ;
(PID.TID 0000.0001) PTRACERS_advScheme = /* Advection Scheme */
(PID.TID 0000.0001)                      33
(PID.TID 0000.0001)     ;
(PID.TID 0000.0001) PTRACERS_SOM_Advection = /* tracer uses SOM advection scheme */
(PID.TID 0000.0001)                   F
(PID.TID 0000.0001)     ;
(PID.TID 0000.0001) PTRACERS_ImplVertAdv = /* implicit vert. advection flag */
(PID.TID 0000.0001)                   F
(PID.TID 0000.0001)     ;
(PID.TID 0000.0001) PTRACERS_diffKh = /* Laplacian Diffusivity */
(PID.TID 0000.0001)                 0.000000000000000E+00
(PID.TID 0000.0001)     ;
(PID.TID 0000.0001) PTRACERS_diffK4 = /* Biharmonic Diffusivity */
(PID.TID 0000.0001)                 0.000000000000000E+00
(PID.TID 0000.0001)     ;
(PID.TID 0000.0001) PTRACERS_diffKrNr = /* Vertical Diffusivity */
(PID.TID 0000.0001)    15 @  1.000000000000000E-05              /* K =  1: 15 */
(PID.TID 0000.0001)     ;
(PID.TID 0000.0001) PTRACERS_useGMRedi = /* apply GM-Redi */
(PID.TID 0000.0001)                   T
(PID.TID 0000.0001)     ;
(PID.TID 0000.0001) PTRACERS_useDWNSLP = /* apply DOWN-SLOPE Flow */
(PID.TID 0000.0001)                   F
(PID.TID 0000.0001)     ;
(PID.TID 0000.0001) PTRACERS_useKPP = /* apply KPP scheme */
(PID.TID 0000.0001)                   F
(PID.TID 0000.0001)     ;
(PID.TID 0000.0001) PTRACERS_ref = /* Reference vertical profile */
(PID.TID 0000.0001)    15 @  0.000000000000000E+00              /* K =  1: 15 */
(PID.TID 0000.0001)     ;
(PID.TID 0000.0001) PTRACERS_EvPrRn =/* tracer conc. in Evap. & Rain */
(PID.TID 0000.0001)                 1.234567000000000E+05
(PID.TID 0000.0001)     ;
(PID.TID 0000.0001)  -----------------------------------
(PID.TID 0000.0001)  tracer number :   64
(PID.TID 0000.0001) PTRACERS_names = /* Tracer short name */
(PID.TID 0000.0001)               'c47'
(PID.TID 0000.0001)     ;
(PID.TID 0000.0001) PTRACERS_long_names = /* Tracer long name */
(PID.TID 0000.0001)               ''
(PID.TID 0000.0001)     ;
(PID.TID 0000.0001) PTRACERS_ioLabel = /* tracer IO Label */
(PID.TID 0000.0001)               '64'
(PID.TID 0000.0001)     ;
(PID.TID 0000.0001) PTRACERS_advScheme = /* Advection Scheme */
(PID.TID 0000.0001)                      33
(PID.TID 0000.0001)     ;
(PID.TID 0000.0001) PTRACERS_SOM_Advection = /* tracer uses SOM advection scheme */
(PID.TID 0000.0001)                   F
(PID.TID 0000.0001)     ;
(PID.TID 0000.0001) PTRACERS_ImplVertAdv = /* implicit vert. advection flag */
(PID.TID 0000.0001)                   F
(PID.TID 0000.0001)     ;
(PID.TID 0000.0001) PTRACERS_diffKh = /* Laplacian Diffusivity */
(PID.TID 0000.0001)                 0.000000000000000E+00
(PID.TID 0000.0001)     ;
(PID.TID 0000.0001) PTRACERS_diffK4 = /* Biharmonic Diffusivity */
(PID.TID 0000.0001)                 0.000000000000000E+00
(PID.TID 0000.0001)     ;
(PID.TID 0000.0001) PTRACERS_diffKrNr = /* Vertical Diffusivity */
(PID.TID 0000.0001)    15 @  1.000000000000000E-05              /* K =  1: 15 */
(PID.TID 0000.0001)     ;
(PID.TID 0000.0001) PTRACERS_useGMRedi = /* apply GM-Redi */
(PID.TID 0000.0001)                   T
(PID.TID 0000.0001)     ;
(PID.TID 0000.0001) PTRACERS_useDWNSLP = /* apply DOWN-SLOPE Flow */
(PID.TID 0000.0001)                   F
(PID.TID 0000.0001)     ;
(PID.TID 0000.0001) PTRACERS_useKPP = /* apply KPP scheme */
(PID.TID 0000.0001)                   F
(PID.TID 0000.0001)     ;
(PID.TID 0000.0001) PTRACERS_ref = /* Reference vertical profile */
(PID.TID 0000.0001)    15 @  0.000000000000000E+00              /* K =  1: 15 */
(PID.TID 0000.0001)     ;
(PID.TID 0000.0001) PTRACERS_EvPrRn =/* tracer conc. in Evap. & Rain */
(PID.TID 0000.0001)                 1.234567000000000E+05
(PID.TID 0000.0001)     ;
(PID.TID 0000.0001)  -----------------------------------
(PID.TID 0000.0001)  tracer number :   65
(PID.TID 0000.0001) PTRACERS_names = /* Tracer short name */
(PID.TID 0000.0001)               'c48'
(PID.TID 0000.0001)     ;
(PID.TID 0000.0001) PTRACERS_long_names = /* Tracer long name */
(PID.TID 0000.0001)               ''
(PID.TID 0000.0001)     ;
(PID.TID 0000.0001) PTRACERS_ioLabel = /* tracer IO Label */
(PID.TID 0000.0001)               '65'
(PID.TID 0000.0001)     ;
(PID.TID 0000.0001) PTRACERS_advScheme = /* Advection Scheme */
(PID.TID 0000.0001)                      33
(PID.TID 0000.0001)     ;
(PID.TID 0000.0001) PTRACERS_SOM_Advection = /* tracer uses SOM advection scheme */
(PID.TID 0000.0001)                   F
(PID.TID 0000.0001)     ;
(PID.TID 0000.0001) PTRACERS_ImplVertAdv = /* implicit vert. advection flag */
(PID.TID 0000.0001)                   F
(PID.TID 0000.0001)     ;
(PID.TID 0000.0001) PTRACERS_diffKh = /* Laplacian Diffusivity */
(PID.TID 0000.0001)                 0.000000000000000E+00
(PID.TID 0000.0001)     ;
(PID.TID 0000.0001) PTRACERS_diffK4 = /* Biharmonic Diffusivity */
(PID.TID 0000.0001)                 0.000000000000000E+00
(PID.TID 0000.0001)     ;
(PID.TID 0000.0001) PTRACERS_diffKrNr = /* Vertical Diffusivity */
(PID.TID 0000.0001)    15 @  1.000000000000000E-05              /* K =  1: 15 */
(PID.TID 0000.0001)     ;
(PID.TID 0000.0001) PTRACERS_useGMRedi = /* apply GM-Redi */
(PID.TID 0000.0001)                   T
(PID.TID 0000.0001)     ;
(PID.TID 0000.0001) PTRACERS_useDWNSLP = /* apply DOWN-SLOPE Flow */
(PID.TID 0000.0001)                   F
(PID.TID 0000.0001)     ;
(PID.TID 0000.0001) PTRACERS_useKPP = /* apply KPP scheme */
(PID.TID 0000.0001)                   F
(PID.TID 0000.0001)     ;
(PID.TID 0000.0001) PTRACERS_ref = /* Reference vertical profile */
(PID.TID 0000.0001)    15 @  0.000000000000000E+00              /* K =  1: 15 */
(PID.TID 0000.0001)     ;
(PID.TID 0000.0001) PTRACERS_EvPrRn =/* tracer conc. in Evap. & Rain */
(PID.TID 0000.0001)                 1.234567000000000E+05
(PID.TID 0000.0001)     ;
(PID.TID 0000.0001)  -----------------------------------
(PID.TID 0000.0001)  tracer number :   66
(PID.TID 0000.0001) PTRACERS_names = /* Tracer short name */
(PID.TID 0000.0001)               'c49'
(PID.TID 0000.0001)     ;
(PID.TID 0000.0001) PTRACERS_long_names = /* Tracer long name */
(PID.TID 0000.0001)               ''
(PID.TID 0000.0001)     ;
(PID.TID 0000.0001) PTRACERS_ioLabel = /* tracer IO Label */
(PID.TID 0000.0001)               '66'
(PID.TID 0000.0001)     ;
(PID.TID 0000.0001) PTRACERS_advScheme = /* Advection Scheme */
(PID.TID 0000.0001)                      33
(PID.TID 0000.0001)     ;
(PID.TID 0000.0001) PTRACERS_SOM_Advection = /* tracer uses SOM advection scheme */
(PID.TID 0000.0001)                   F
(PID.TID 0000.0001)     ;
(PID.TID 0000.0001) PTRACERS_ImplVertAdv = /* implicit vert. advection flag */
(PID.TID 0000.0001)                   F
(PID.TID 0000.0001)     ;
(PID.TID 0000.0001) PTRACERS_diffKh = /* Laplacian Diffusivity */
(PID.TID 0000.0001)                 0.000000000000000E+00
(PID.TID 0000.0001)     ;
(PID.TID 0000.0001) PTRACERS_diffK4 = /* Biharmonic Diffusivity */
(PID.TID 0000.0001)                 0.000000000000000E+00
(PID.TID 0000.0001)     ;
(PID.TID 0000.0001) PTRACERS_diffKrNr = /* Vertical Diffusivity */
(PID.TID 0000.0001)    15 @  1.000000000000000E-05              /* K =  1: 15 */
(PID.TID 0000.0001)     ;
(PID.TID 0000.0001) PTRACERS_useGMRedi = /* apply GM-Redi */
(PID.TID 0000.0001)                   T
(PID.TID 0000.0001)     ;
(PID.TID 0000.0001) PTRACERS_useDWNSLP = /* apply DOWN-SLOPE Flow */
(PID.TID 0000.0001)                   F
(PID.TID 0000.0001)     ;
(PID.TID 0000.0001) PTRACERS_useKPP = /* apply KPP scheme */
(PID.TID 0000.0001)                   F
(PID.TID 0000.0001)     ;
(PID.TID 0000.0001) PTRACERS_ref = /* Reference vertical profile */
(PID.TID 0000.0001)    15 @  0.000000000000000E+00              /* K =  1: 15 */
(PID.TID 0000.0001)     ;
(PID.TID 0000.0001) PTRACERS_EvPrRn =/* tracer conc. in Evap. & Rain */
(PID.TID 0000.0001)                 1.234567000000000E+05
(PID.TID 0000.0001)     ;
(PID.TID 0000.0001)  -----------------------------------
(PID.TID 0000.0001)  tracer number :   67
(PID.TID 0000.0001) PTRACERS_names = /* Tracer short name */
(PID.TID 0000.0001)               'c50'
(PID.TID 0000.0001)     ;
(PID.TID 0000.0001) PTRACERS_long_names = /* Tracer long name */
(PID.TID 0000.0001)               ''
(PID.TID 0000.0001)     ;
(PID.TID 0000.0001) PTRACERS_ioLabel = /* tracer IO Label */
(PID.TID 0000.0001)               '67'
(PID.TID 0000.0001)     ;
(PID.TID 0000.0001) PTRACERS_advScheme = /* Advection Scheme */
(PID.TID 0000.0001)                      33
(PID.TID 0000.0001)     ;
(PID.TID 0000.0001) PTRACERS_SOM_Advection = /* tracer uses SOM advection scheme */
(PID.TID 0000.0001)                   F
(PID.TID 0000.0001)     ;
(PID.TID 0000.0001) PTRACERS_ImplVertAdv = /* implicit vert. advection flag */
(PID.TID 0000.0001)                   F
(PID.TID 0000.0001)     ;
(PID.TID 0000.0001) PTRACERS_diffKh = /* Laplacian Diffusivity */
(PID.TID 0000.0001)                 0.000000000000000E+00
(PID.TID 0000.0001)     ;
(PID.TID 0000.0001) PTRACERS_diffK4 = /* Biharmonic Diffusivity */
(PID.TID 0000.0001)                 0.000000000000000E+00
(PID.TID 0000.0001)     ;
(PID.TID 0000.0001) PTRACERS_diffKrNr = /* Vertical Diffusivity */
(PID.TID 0000.0001)    15 @  1.000000000000000E-05              /* K =  1: 15 */
(PID.TID 0000.0001)     ;
(PID.TID 0000.0001) PTRACERS_useGMRedi = /* apply GM-Redi */
(PID.TID 0000.0001)                   T
(PID.TID 0000.0001)     ;
(PID.TID 0000.0001) PTRACERS_useDWNSLP = /* apply DOWN-SLOPE Flow */
(PID.TID 0000.0001)                   F
(PID.TID 0000.0001)     ;
(PID.TID 0000.0001) PTRACERS_useKPP = /* apply KPP scheme */
(PID.TID 0000.0001)                   F
(PID.TID 0000.0001)     ;
(PID.TID 0000.0001) PTRACERS_ref = /* Reference vertical profile */
(PID.TID 0000.0001)    15 @  0.000000000000000E+00              /* K =  1: 15 */
(PID.TID 0000.0001)     ;
(PID.TID 0000.0001) PTRACERS_EvPrRn =/* tracer conc. in Evap. & Rain */
(PID.TID 0000.0001)                 1.234567000000000E+05
(PID.TID 0000.0001)     ;
(PID.TID 0000.0001)  -----------------------------------
(PID.TID 0000.0001)  tracer number :   68
(PID.TID 0000.0001) PTRACERS_names = /* Tracer short name */
(PID.TID 0000.0001)               'c51'
(PID.TID 0000.0001)     ;
(PID.TID 0000.0001) PTRACERS_long_names = /* Tracer long name */
(PID.TID 0000.0001)               ''
(PID.TID 0000.0001)     ;
(PID.TID 0000.0001) PTRACERS_ioLabel = /* tracer IO Label */
(PID.TID 0000.0001)               '68'
(PID.TID 0000.0001)     ;
(PID.TID 0000.0001) PTRACERS_advScheme = /* Advection Scheme */
(PID.TID 0000.0001)                      33
(PID.TID 0000.0001)     ;
(PID.TID 0000.0001) PTRACERS_SOM_Advection = /* tracer uses SOM advection scheme */
(PID.TID 0000.0001)                   F
(PID.TID 0000.0001)     ;
(PID.TID 0000.0001) PTRACERS_ImplVertAdv = /* implicit vert. advection flag */
(PID.TID 0000.0001)                   F
(PID.TID 0000.0001)     ;
(PID.TID 0000.0001) PTRACERS_diffKh = /* Laplacian Diffusivity */
(PID.TID 0000.0001)                 0.000000000000000E+00
(PID.TID 0000.0001)     ;
(PID.TID 0000.0001) PTRACERS_diffK4 = /* Biharmonic Diffusivity */
(PID.TID 0000.0001)                 0.000000000000000E+00
(PID.TID 0000.0001)     ;
(PID.TID 0000.0001) PTRACERS_diffKrNr = /* Vertical Diffusivity */
(PID.TID 0000.0001)    15 @  1.000000000000000E-05              /* K =  1: 15 */
(PID.TID 0000.0001)     ;
(PID.TID 0000.0001) PTRACERS_useGMRedi = /* apply GM-Redi */
(PID.TID 0000.0001)                   T
(PID.TID 0000.0001)     ;
(PID.TID 0000.0001) PTRACERS_useDWNSLP = /* apply DOWN-SLOPE Flow */
(PID.TID 0000.0001)                   F
(PID.TID 0000.0001)     ;
(PID.TID 0000.0001) PTRACERS_useKPP = /* apply KPP scheme */
(PID.TID 0000.0001)                   F
(PID.TID 0000.0001)     ;
(PID.TID 0000.0001) PTRACERS_ref = /* Reference vertical profile */
(PID.TID 0000.0001)    15 @  0.000000000000000E+00              /* K =  1: 15 */
(PID.TID 0000.0001)     ;
(PID.TID 0000.0001) PTRACERS_EvPrRn =/* tracer conc. in Evap. & Rain */
(PID.TID 0000.0001)                 1.234567000000000E+05
(PID.TID 0000.0001)     ;
(PID.TID 0000.0001)  -----------------------------------
(PID.TID 0000.0001)  tracer number :   69
(PID.TID 0000.0001) PTRACERS_names = /* Tracer short name */
(PID.TID 0000.0001)               'c52'
(PID.TID 0000.0001)     ;
(PID.TID 0000.0001) PTRACERS_long_names = /* Tracer long name */
(PID.TID 0000.0001)               ''
(PID.TID 0000.0001)     ;
(PID.TID 0000.0001) PTRACERS_ioLabel = /* tracer IO Label */
(PID.TID 0000.0001)               '69'
(PID.TID 0000.0001)     ;
(PID.TID 0000.0001) PTRACERS_advScheme = /* Advection Scheme */
(PID.TID 0000.0001)                      33
(PID.TID 0000.0001)     ;
(PID.TID 0000.0001) PTRACERS_SOM_Advection = /* tracer uses SOM advection scheme */
(PID.TID 0000.0001)                   F
(PID.TID 0000.0001)     ;
(PID.TID 0000.0001) PTRACERS_ImplVertAdv = /* implicit vert. advection flag */
(PID.TID 0000.0001)                   F
(PID.TID 0000.0001)     ;
(PID.TID 0000.0001) PTRACERS_diffKh = /* Laplacian Diffusivity */
(PID.TID 0000.0001)                 0.000000000000000E+00
(PID.TID 0000.0001)     ;
(PID.TID 0000.0001) PTRACERS_diffK4 = /* Biharmonic Diffusivity */
(PID.TID 0000.0001)                 0.000000000000000E+00
(PID.TID 0000.0001)     ;
(PID.TID 0000.0001) PTRACERS_diffKrNr = /* Vertical Diffusivity */
(PID.TID 0000.0001)    15 @  1.000000000000000E-05              /* K =  1: 15 */
(PID.TID 0000.0001)     ;
(PID.TID 0000.0001) PTRACERS_useGMRedi = /* apply GM-Redi */
(PID.TID 0000.0001)                   T
(PID.TID 0000.0001)     ;
(PID.TID 0000.0001) PTRACERS_useDWNSLP = /* apply DOWN-SLOPE Flow */
(PID.TID 0000.0001)                   F
(PID.TID 0000.0001)     ;
(PID.TID 0000.0001) PTRACERS_useKPP = /* apply KPP scheme */
(PID.TID 0000.0001)                   F
(PID.TID 0000.0001)     ;
(PID.TID 0000.0001) PTRACERS_ref = /* Reference vertical profile */
(PID.TID 0000.0001)    15 @  0.000000000000000E+00              /* K =  1: 15 */
(PID.TID 0000.0001)     ;
(PID.TID 0000.0001) PTRACERS_EvPrRn =/* tracer conc. in Evap. & Rain */
(PID.TID 0000.0001)                 1.234567000000000E+05
(PID.TID 0000.0001)     ;
(PID.TID 0000.0001)  -----------------------------------
(PID.TID 0000.0001)  tracer number :   70
(PID.TID 0000.0001) PTRACERS_names = /* Tracer short name */
(PID.TID 0000.0001)               'c53'
(PID.TID 0000.0001)     ;
(PID.TID 0000.0001) PTRACERS_long_names = /* Tracer long name */
(PID.TID 0000.0001)               ''
(PID.TID 0000.0001)     ;
(PID.TID 0000.0001) PTRACERS_ioLabel = /* tracer IO Label */
(PID.TID 0000.0001)               '70'
(PID.TID 0000.0001)     ;
(PID.TID 0000.0001) PTRACERS_advScheme = /* Advection Scheme */
(PID.TID 0000.0001)                      33
(PID.TID 0000.0001)     ;
(PID.TID 0000.0001) PTRACERS_SOM_Advection = /* tracer uses SOM advection scheme */
(PID.TID 0000.0001)                   F
(PID.TID 0000.0001)     ;
(PID.TID 0000.0001) PTRACERS_ImplVertAdv = /* implicit vert. advection flag */
(PID.TID 0000.0001)                   F
(PID.TID 0000.0001)     ;
(PID.TID 0000.0001) PTRACERS_diffKh = /* Laplacian Diffusivity */
(PID.TID 0000.0001)                 0.000000000000000E+00
(PID.TID 0000.0001)     ;
(PID.TID 0000.0001) PTRACERS_diffK4 = /* Biharmonic Diffusivity */
(PID.TID 0000.0001)                 0.000000000000000E+00
(PID.TID 0000.0001)     ;
(PID.TID 0000.0001) PTRACERS_diffKrNr = /* Vertical Diffusivity */
(PID.TID 0000.0001)    15 @  1.000000000000000E-05              /* K =  1: 15 */
(PID.TID 0000.0001)     ;
(PID.TID 0000.0001) PTRACERS_useGMRedi = /* apply GM-Redi */
(PID.TID 0000.0001)                   T
(PID.TID 0000.0001)     ;
(PID.TID 0000.0001) PTRACERS_useDWNSLP = /* apply DOWN-SLOPE Flow */
(PID.TID 0000.0001)                   F
(PID.TID 0000.0001)     ;
(PID.TID 0000.0001) PTRACERS_useKPP = /* apply KPP scheme */
(PID.TID 0000.0001)                   F
(PID.TID 0000.0001)     ;
(PID.TID 0000.0001) PTRACERS_ref = /* Reference vertical profile */
(PID.TID 0000.0001)    15 @  0.000000000000000E+00              /* K =  1: 15 */
(PID.TID 0000.0001)     ;
(PID.TID 0000.0001) PTRACERS_EvPrRn =/* tracer conc. in Evap. & Rain */
(PID.TID 0000.0001)                 1.234567000000000E+05
(PID.TID 0000.0001)     ;
(PID.TID 0000.0001)  -----------------------------------
(PID.TID 0000.0001)  tracer number :   71
(PID.TID 0000.0001) PTRACERS_names = /* Tracer short name */
(PID.TID 0000.0001)               'c54'
(PID.TID 0000.0001)     ;
(PID.TID 0000.0001) PTRACERS_long_names = /* Tracer long name */
(PID.TID 0000.0001)               ''
(PID.TID 0000.0001)     ;
(PID.TID 0000.0001) PTRACERS_ioLabel = /* tracer IO Label */
(PID.TID 0000.0001)               '71'
(PID.TID 0000.0001)     ;
(PID.TID 0000.0001) PTRACERS_advScheme = /* Advection Scheme */
(PID.TID 0000.0001)                      33
(PID.TID 0000.0001)     ;
(PID.TID 0000.0001) PTRACERS_SOM_Advection = /* tracer uses SOM advection scheme */
(PID.TID 0000.0001)                   F
(PID.TID 0000.0001)     ;
(PID.TID 0000.0001) PTRACERS_ImplVertAdv = /* implicit vert. advection flag */
(PID.TID 0000.0001)                   F
(PID.TID 0000.0001)     ;
(PID.TID 0000.0001) PTRACERS_diffKh = /* Laplacian Diffusivity */
(PID.TID 0000.0001)                 0.000000000000000E+00
(PID.TID 0000.0001)     ;
(PID.TID 0000.0001) PTRACERS_diffK4 = /* Biharmonic Diffusivity */
(PID.TID 0000.0001)                 0.000000000000000E+00
(PID.TID 0000.0001)     ;
(PID.TID 0000.0001) PTRACERS_diffKrNr = /* Vertical Diffusivity */
(PID.TID 0000.0001)    15 @  1.000000000000000E-05              /* K =  1: 15 */
(PID.TID 0000.0001)     ;
(PID.TID 0000.0001) PTRACERS_useGMRedi = /* apply GM-Redi */
(PID.TID 0000.0001)                   T
(PID.TID 0000.0001)     ;
(PID.TID 0000.0001) PTRACERS_useDWNSLP = /* apply DOWN-SLOPE Flow */
(PID.TID 0000.0001)                   F
(PID.TID 0000.0001)     ;
(PID.TID 0000.0001) PTRACERS_useKPP = /* apply KPP scheme */
(PID.TID 0000.0001)                   F
(PID.TID 0000.0001)     ;
(PID.TID 0000.0001) PTRACERS_ref = /* Reference vertical profile */
(PID.TID 0000.0001)    15 @  0.000000000000000E+00              /* K =  1: 15 */
(PID.TID 0000.0001)     ;
(PID.TID 0000.0001) PTRACERS_EvPrRn =/* tracer conc. in Evap. & Rain */
(PID.TID 0000.0001)                 1.234567000000000E+05
(PID.TID 0000.0001)     ;
(PID.TID 0000.0001)  -----------------------------------
(PID.TID 0000.0001)  tracer number :   72
(PID.TID 0000.0001) PTRACERS_names = /* Tracer short name */
(PID.TID 0000.0001)               'c55'
(PID.TID 0000.0001)     ;
(PID.TID 0000.0001) PTRACERS_long_names = /* Tracer long name */
(PID.TID 0000.0001)               ''
(PID.TID 0000.0001)     ;
(PID.TID 0000.0001) PTRACERS_ioLabel = /* tracer IO Label */
(PID.TID 0000.0001)               '72'
(PID.TID 0000.0001)     ;
(PID.TID 0000.0001) PTRACERS_advScheme = /* Advection Scheme */
(PID.TID 0000.0001)                      33
(PID.TID 0000.0001)     ;
(PID.TID 0000.0001) PTRACERS_SOM_Advection = /* tracer uses SOM advection scheme */
(PID.TID 0000.0001)                   F
(PID.TID 0000.0001)     ;
(PID.TID 0000.0001) PTRACERS_ImplVertAdv = /* implicit vert. advection flag */
(PID.TID 0000.0001)                   F
(PID.TID 0000.0001)     ;
(PID.TID 0000.0001) PTRACERS_diffKh = /* Laplacian Diffusivity */
(PID.TID 0000.0001)                 0.000000000000000E+00
(PID.TID 0000.0001)     ;
(PID.TID 0000.0001) PTRACERS_diffK4 = /* Biharmonic Diffusivity */
(PID.TID 0000.0001)                 0.000000000000000E+00
(PID.TID 0000.0001)     ;
(PID.TID 0000.0001) PTRACERS_diffKrNr = /* Vertical Diffusivity */
(PID.TID 0000.0001)    15 @  1.000000000000000E-05              /* K =  1: 15 */
(PID.TID 0000.0001)     ;
(PID.TID 0000.0001) PTRACERS_useGMRedi = /* apply GM-Redi */
(PID.TID 0000.0001)                   T
(PID.TID 0000.0001)     ;
(PID.TID 0000.0001) PTRACERS_useDWNSLP = /* apply DOWN-SLOPE Flow */
(PID.TID 0000.0001)                   F
(PID.TID 0000.0001)     ;
(PID.TID 0000.0001) PTRACERS_useKPP = /* apply KPP scheme */
(PID.TID 0000.0001)                   F
(PID.TID 0000.0001)     ;
(PID.TID 0000.0001) PTRACERS_ref = /* Reference vertical profile */
(PID.TID 0000.0001)    15 @  0.000000000000000E+00              /* K =  1: 15 */
(PID.TID 0000.0001)     ;
(PID.TID 0000.0001) PTRACERS_EvPrRn =/* tracer conc. in Evap. & Rain */
(PID.TID 0000.0001)                 1.234567000000000E+05
(PID.TID 0000.0001)     ;
(PID.TID 0000.0001)  -----------------------------------
(PID.TID 0000.0001)  tracer number :   73
(PID.TID 0000.0001) PTRACERS_names = /* Tracer short name */
(PID.TID 0000.0001)               'c56'
(PID.TID 0000.0001)     ;
(PID.TID 0000.0001) PTRACERS_long_names = /* Tracer long name */
(PID.TID 0000.0001)               ''
(PID.TID 0000.0001)     ;
(PID.TID 0000.0001) PTRACERS_ioLabel = /* tracer IO Label */
(PID.TID 0000.0001)               '73'
(PID.TID 0000.0001)     ;
(PID.TID 0000.0001) PTRACERS_advScheme = /* Advection Scheme */
(PID.TID 0000.0001)                      33
(PID.TID 0000.0001)     ;
(PID.TID 0000.0001) PTRACERS_SOM_Advection = /* tracer uses SOM advection scheme */
(PID.TID 0000.0001)                   F
(PID.TID 0000.0001)     ;
(PID.TID 0000.0001) PTRACERS_ImplVertAdv = /* implicit vert. advection flag */
(PID.TID 0000.0001)                   F
(PID.TID 0000.0001)     ;
(PID.TID 0000.0001) PTRACERS_diffKh = /* Laplacian Diffusivity */
(PID.TID 0000.0001)                 0.000000000000000E+00
(PID.TID 0000.0001)     ;
(PID.TID 0000.0001) PTRACERS_diffK4 = /* Biharmonic Diffusivity */
(PID.TID 0000.0001)                 0.000000000000000E+00
(PID.TID 0000.0001)     ;
(PID.TID 0000.0001) PTRACERS_diffKrNr = /* Vertical Diffusivity */
(PID.TID 0000.0001)    15 @  1.000000000000000E-05              /* K =  1: 15 */
(PID.TID 0000.0001)     ;
(PID.TID 0000.0001) PTRACERS_useGMRedi = /* apply GM-Redi */
(PID.TID 0000.0001)                   T
(PID.TID 0000.0001)     ;
(PID.TID 0000.0001) PTRACERS_useDWNSLP = /* apply DOWN-SLOPE Flow */
(PID.TID 0000.0001)                   F
(PID.TID 0000.0001)     ;
(PID.TID 0000.0001) PTRACERS_useKPP = /* apply KPP scheme */
(PID.TID 0000.0001)                   F
(PID.TID 0000.0001)     ;
(PID.TID 0000.0001) PTRACERS_ref = /* Reference vertical profile */
(PID.TID 0000.0001)    15 @  0.000000000000000E+00              /* K =  1: 15 */
(PID.TID 0000.0001)     ;
(PID.TID 0000.0001) PTRACERS_EvPrRn =/* tracer conc. in Evap. & Rain */
(PID.TID 0000.0001)                 1.234567000000000E+05
(PID.TID 0000.0001)     ;
(PID.TID 0000.0001)  -----------------------------------
(PID.TID 0000.0001)  tracer number :   74
(PID.TID 0000.0001) PTRACERS_names = /* Tracer short name */
(PID.TID 0000.0001)               'c57'
(PID.TID 0000.0001)     ;
(PID.TID 0000.0001) PTRACERS_long_names = /* Tracer long name */
(PID.TID 0000.0001)               ''
(PID.TID 0000.0001)     ;
(PID.TID 0000.0001) PTRACERS_ioLabel = /* tracer IO Label */
(PID.TID 0000.0001)               '74'
(PID.TID 0000.0001)     ;
(PID.TID 0000.0001) PTRACERS_advScheme = /* Advection Scheme */
(PID.TID 0000.0001)                      33
(PID.TID 0000.0001)     ;
(PID.TID 0000.0001) PTRACERS_SOM_Advection = /* tracer uses SOM advection scheme */
(PID.TID 0000.0001)                   F
(PID.TID 0000.0001)     ;
(PID.TID 0000.0001) PTRACERS_ImplVertAdv = /* implicit vert. advection flag */
(PID.TID 0000.0001)                   F
(PID.TID 0000.0001)     ;
(PID.TID 0000.0001) PTRACERS_diffKh = /* Laplacian Diffusivity */
(PID.TID 0000.0001)                 0.000000000000000E+00
(PID.TID 0000.0001)     ;
(PID.TID 0000.0001) PTRACERS_diffK4 = /* Biharmonic Diffusivity */
(PID.TID 0000.0001)                 0.000000000000000E+00
(PID.TID 0000.0001)     ;
(PID.TID 0000.0001) PTRACERS_diffKrNr = /* Vertical Diffusivity */
(PID.TID 0000.0001)    15 @  1.000000000000000E-05              /* K =  1: 15 */
(PID.TID 0000.0001)     ;
(PID.TID 0000.0001) PTRACERS_useGMRedi = /* apply GM-Redi */
(PID.TID 0000.0001)                   T
(PID.TID 0000.0001)     ;
(PID.TID 0000.0001) PTRACERS_useDWNSLP = /* apply DOWN-SLOPE Flow */
(PID.TID 0000.0001)                   F
(PID.TID 0000.0001)     ;
(PID.TID 0000.0001) PTRACERS_useKPP = /* apply KPP scheme */
(PID.TID 0000.0001)                   F
(PID.TID 0000.0001)     ;
(PID.TID 0000.0001) PTRACERS_ref = /* Reference vertical profile */
(PID.TID 0000.0001)    15 @  0.000000000000000E+00              /* K =  1: 15 */
(PID.TID 0000.0001)     ;
(PID.TID 0000.0001) PTRACERS_EvPrRn =/* tracer conc. in Evap. & Rain */
(PID.TID 0000.0001)                 1.234567000000000E+05
(PID.TID 0000.0001)     ;
(PID.TID 0000.0001)  -----------------------------------
(PID.TID 0000.0001)  tracer number :   75
(PID.TID 0000.0001) PTRACERS_names = /* Tracer short name */
(PID.TID 0000.0001)               'c58'
(PID.TID 0000.0001)     ;
(PID.TID 0000.0001) PTRACERS_long_names = /* Tracer long name */
(PID.TID 0000.0001)               ''
(PID.TID 0000.0001)     ;
(PID.TID 0000.0001) PTRACERS_ioLabel = /* tracer IO Label */
(PID.TID 0000.0001)               '75'
(PID.TID 0000.0001)     ;
(PID.TID 0000.0001) PTRACERS_advScheme = /* Advection Scheme */
(PID.TID 0000.0001)                      33
(PID.TID 0000.0001)     ;
(PID.TID 0000.0001) PTRACERS_SOM_Advection = /* tracer uses SOM advection scheme */
(PID.TID 0000.0001)                   F
(PID.TID 0000.0001)     ;
(PID.TID 0000.0001) PTRACERS_ImplVertAdv = /* implicit vert. advection flag */
(PID.TID 0000.0001)                   F
(PID.TID 0000.0001)     ;
(PID.TID 0000.0001) PTRACERS_diffKh = /* Laplacian Diffusivity */
(PID.TID 0000.0001)                 0.000000000000000E+00
(PID.TID 0000.0001)     ;
(PID.TID 0000.0001) PTRACERS_diffK4 = /* Biharmonic Diffusivity */
(PID.TID 0000.0001)                 0.000000000000000E+00
(PID.TID 0000.0001)     ;
(PID.TID 0000.0001) PTRACERS_diffKrNr = /* Vertical Diffusivity */
(PID.TID 0000.0001)    15 @  1.000000000000000E-05              /* K =  1: 15 */
(PID.TID 0000.0001)     ;
(PID.TID 0000.0001) PTRACERS_useGMRedi = /* apply GM-Redi */
(PID.TID 0000.0001)                   T
(PID.TID 0000.0001)     ;
(PID.TID 0000.0001) PTRACERS_useDWNSLP = /* apply DOWN-SLOPE Flow */
(PID.TID 0000.0001)                   F
(PID.TID 0000.0001)     ;
(PID.TID 0000.0001) PTRACERS_useKPP = /* apply KPP scheme */
(PID.TID 0000.0001)                   F
(PID.TID 0000.0001)     ;
(PID.TID 0000.0001) PTRACERS_ref = /* Reference vertical profile */
(PID.TID 0000.0001)    15 @  0.000000000000000E+00              /* K =  1: 15 */
(PID.TID 0000.0001)     ;
(PID.TID 0000.0001) PTRACERS_EvPrRn =/* tracer conc. in Evap. & Rain */
(PID.TID 0000.0001)                 1.234567000000000E+05
(PID.TID 0000.0001)     ;
(PID.TID 0000.0001)  -----------------------------------
(PID.TID 0000.0001)  tracer number :   76
(PID.TID 0000.0001) PTRACERS_names = /* Tracer short name */
(PID.TID 0000.0001)               'c59'
(PID.TID 0000.0001)     ;
(PID.TID 0000.0001) PTRACERS_long_names = /* Tracer long name */
(PID.TID 0000.0001)               ''
(PID.TID 0000.0001)     ;
(PID.TID 0000.0001) PTRACERS_ioLabel = /* tracer IO Label */
(PID.TID 0000.0001)               '76'
(PID.TID 0000.0001)     ;
(PID.TID 0000.0001) PTRACERS_advScheme = /* Advection Scheme */
(PID.TID 0000.0001)                      33
(PID.TID 0000.0001)     ;
(PID.TID 0000.0001) PTRACERS_SOM_Advection = /* tracer uses SOM advection scheme */
(PID.TID 0000.0001)                   F
(PID.TID 0000.0001)     ;
(PID.TID 0000.0001) PTRACERS_ImplVertAdv = /* implicit vert. advection flag */
(PID.TID 0000.0001)                   F
(PID.TID 0000.0001)     ;
(PID.TID 0000.0001) PTRACERS_diffKh = /* Laplacian Diffusivity */
(PID.TID 0000.0001)                 0.000000000000000E+00
(PID.TID 0000.0001)     ;
(PID.TID 0000.0001) PTRACERS_diffK4 = /* Biharmonic Diffusivity */
(PID.TID 0000.0001)                 0.000000000000000E+00
(PID.TID 0000.0001)     ;
(PID.TID 0000.0001) PTRACERS_diffKrNr = /* Vertical Diffusivity */
(PID.TID 0000.0001)    15 @  1.000000000000000E-05              /* K =  1: 15 */
(PID.TID 0000.0001)     ;
(PID.TID 0000.0001) PTRACERS_useGMRedi = /* apply GM-Redi */
(PID.TID 0000.0001)                   T
(PID.TID 0000.0001)     ;
(PID.TID 0000.0001) PTRACERS_useDWNSLP = /* apply DOWN-SLOPE Flow */
(PID.TID 0000.0001)                   F
(PID.TID 0000.0001)     ;
(PID.TID 0000.0001) PTRACERS_useKPP = /* apply KPP scheme */
(PID.TID 0000.0001)                   F
(PID.TID 0000.0001)     ;
(PID.TID 0000.0001) PTRACERS_ref = /* Reference vertical profile */
(PID.TID 0000.0001)    15 @  0.000000000000000E+00              /* K =  1: 15 */
(PID.TID 0000.0001)     ;
(PID.TID 0000.0001) PTRACERS_EvPrRn =/* tracer conc. in Evap. & Rain */
(PID.TID 0000.0001)                 1.234567000000000E+05
(PID.TID 0000.0001)     ;
(PID.TID 0000.0001)  -----------------------------------
(PID.TID 0000.0001)  tracer number :   77
(PID.TID 0000.0001) PTRACERS_names = /* Tracer short name */
(PID.TID 0000.0001)               'c60'
(PID.TID 0000.0001)     ;
(PID.TID 0000.0001) PTRACERS_long_names = /* Tracer long name */
(PID.TID 0000.0001)               ''
(PID.TID 0000.0001)     ;
(PID.TID 0000.0001) PTRACERS_ioLabel = /* tracer IO Label */
(PID.TID 0000.0001)               '77'
(PID.TID 0000.0001)     ;
(PID.TID 0000.0001) PTRACERS_advScheme = /* Advection Scheme */
(PID.TID 0000.0001)                      33
(PID.TID 0000.0001)     ;
(PID.TID 0000.0001) PTRACERS_SOM_Advection = /* tracer uses SOM advection scheme */
(PID.TID 0000.0001)                   F
(PID.TID 0000.0001)     ;
(PID.TID 0000.0001) PTRACERS_ImplVertAdv = /* implicit vert. advection flag */
(PID.TID 0000.0001)                   F
(PID.TID 0000.0001)     ;
(PID.TID 0000.0001) PTRACERS_diffKh = /* Laplacian Diffusivity */
(PID.TID 0000.0001)                 0.000000000000000E+00
(PID.TID 0000.0001)     ;
(PID.TID 0000.0001) PTRACERS_diffK4 = /* Biharmonic Diffusivity */
(PID.TID 0000.0001)                 0.000000000000000E+00
(PID.TID 0000.0001)     ;
(PID.TID 0000.0001) PTRACERS_diffKrNr = /* Vertical Diffusivity */
(PID.TID 0000.0001)    15 @  1.000000000000000E-05              /* K =  1: 15 */
(PID.TID 0000.0001)     ;
(PID.TID 0000.0001) PTRACERS_useGMRedi = /* apply GM-Redi */
(PID.TID 0000.0001)                   T
(PID.TID 0000.0001)     ;
(PID.TID 0000.0001) PTRACERS_useDWNSLP = /* apply DOWN-SLOPE Flow */
(PID.TID 0000.0001)                   F
(PID.TID 0000.0001)     ;
(PID.TID 0000.0001) PTRACERS_useKPP = /* apply KPP scheme */
(PID.TID 0000.0001)                   F
(PID.TID 0000.0001)     ;
(PID.TID 0000.0001) PTRACERS_ref = /* Reference vertical profile */
(PID.TID 0000.0001)    15 @  0.000000000000000E+00              /* K =  1: 15 */
(PID.TID 0000.0001)     ;
(PID.TID 0000.0001) PTRACERS_EvPrRn =/* tracer conc. in Evap. & Rain */
(PID.TID 0000.0001)                 1.234567000000000E+05
(PID.TID 0000.0001)     ;
(PID.TID 0000.0001)  -----------------------------------
(PID.TID 0000.0001)  tracer number :   78
(PID.TID 0000.0001) PTRACERS_names = /* Tracer short name */
(PID.TID 0000.0001)               'c61'
(PID.TID 0000.0001)     ;
(PID.TID 0000.0001) PTRACERS_long_names = /* Tracer long name */
(PID.TID 0000.0001)               ''
(PID.TID 0000.0001)     ;
(PID.TID 0000.0001) PTRACERS_ioLabel = /* tracer IO Label */
(PID.TID 0000.0001)               '78'
(PID.TID 0000.0001)     ;
(PID.TID 0000.0001) PTRACERS_advScheme = /* Advection Scheme */
(PID.TID 0000.0001)                      33
(PID.TID 0000.0001)     ;
(PID.TID 0000.0001) PTRACERS_SOM_Advection = /* tracer uses SOM advection scheme */
(PID.TID 0000.0001)                   F
(PID.TID 0000.0001)     ;
(PID.TID 0000.0001) PTRACERS_ImplVertAdv = /* implicit vert. advection flag */
(PID.TID 0000.0001)                   F
(PID.TID 0000.0001)     ;
(PID.TID 0000.0001) PTRACERS_diffKh = /* Laplacian Diffusivity */
(PID.TID 0000.0001)                 0.000000000000000E+00
(PID.TID 0000.0001)     ;
(PID.TID 0000.0001) PTRACERS_diffK4 = /* Biharmonic Diffusivity */
(PID.TID 0000.0001)                 0.000000000000000E+00
(PID.TID 0000.0001)     ;
(PID.TID 0000.0001) PTRACERS_diffKrNr = /* Vertical Diffusivity */
(PID.TID 0000.0001)    15 @  1.000000000000000E-05              /* K =  1: 15 */
(PID.TID 0000.0001)     ;
(PID.TID 0000.0001) PTRACERS_useGMRedi = /* apply GM-Redi */
(PID.TID 0000.0001)                   T
(PID.TID 0000.0001)     ;
(PID.TID 0000.0001) PTRACERS_useDWNSLP = /* apply DOWN-SLOPE Flow */
(PID.TID 0000.0001)                   F
(PID.TID 0000.0001)     ;
(PID.TID 0000.0001) PTRACERS_useKPP = /* apply KPP scheme */
(PID.TID 0000.0001)                   F
(PID.TID 0000.0001)     ;
(PID.TID 0000.0001) PTRACERS_ref = /* Reference vertical profile */
(PID.TID 0000.0001)    15 @  0.000000000000000E+00              /* K =  1: 15 */
(PID.TID 0000.0001)     ;
(PID.TID 0000.0001) PTRACERS_EvPrRn =/* tracer conc. in Evap. & Rain */
(PID.TID 0000.0001)                 1.234567000000000E+05
(PID.TID 0000.0001)     ;
(PID.TID 0000.0001)  -----------------------------------
(PID.TID 0000.0001)  tracer number :   79
(PID.TID 0000.0001) PTRACERS_names = /* Tracer short name */
(PID.TID 0000.0001)               'c62'
(PID.TID 0000.0001)     ;
(PID.TID 0000.0001) PTRACERS_long_names = /* Tracer long name */
(PID.TID 0000.0001)               ''
(PID.TID 0000.0001)     ;
(PID.TID 0000.0001) PTRACERS_ioLabel = /* tracer IO Label */
(PID.TID 0000.0001)               '79'
(PID.TID 0000.0001)     ;
(PID.TID 0000.0001) PTRACERS_advScheme = /* Advection Scheme */
(PID.TID 0000.0001)                      33
(PID.TID 0000.0001)     ;
(PID.TID 0000.0001) PTRACERS_SOM_Advection = /* tracer uses SOM advection scheme */
(PID.TID 0000.0001)                   F
(PID.TID 0000.0001)     ;
(PID.TID 0000.0001) PTRACERS_ImplVertAdv = /* implicit vert. advection flag */
(PID.TID 0000.0001)                   F
(PID.TID 0000.0001)     ;
(PID.TID 0000.0001) PTRACERS_diffKh = /* Laplacian Diffusivity */
(PID.TID 0000.0001)                 0.000000000000000E+00
(PID.TID 0000.0001)     ;
(PID.TID 0000.0001) PTRACERS_diffK4 = /* Biharmonic Diffusivity */
(PID.TID 0000.0001)                 0.000000000000000E+00
(PID.TID 0000.0001)     ;
(PID.TID 0000.0001) PTRACERS_diffKrNr = /* Vertical Diffusivity */
(PID.TID 0000.0001)    15 @  1.000000000000000E-05              /* K =  1: 15 */
(PID.TID 0000.0001)     ;
(PID.TID 0000.0001) PTRACERS_useGMRedi = /* apply GM-Redi */
(PID.TID 0000.0001)                   T
(PID.TID 0000.0001)     ;
(PID.TID 0000.0001) PTRACERS_useDWNSLP = /* apply DOWN-SLOPE Flow */
(PID.TID 0000.0001)                   F
(PID.TID 0000.0001)     ;
(PID.TID 0000.0001) PTRACERS_useKPP = /* apply KPP scheme */
(PID.TID 0000.0001)                   F
(PID.TID 0000.0001)     ;
(PID.TID 0000.0001) PTRACERS_ref = /* Reference vertical profile */
(PID.TID 0000.0001)    15 @  0.000000000000000E+00              /* K =  1: 15 */
(PID.TID 0000.0001)     ;
(PID.TID 0000.0001) PTRACERS_EvPrRn =/* tracer conc. in Evap. & Rain */
(PID.TID 0000.0001)                 1.234567000000000E+05
(PID.TID 0000.0001)     ;
(PID.TID 0000.0001)  -----------------------------------
(PID.TID 0000.0001)  tracer number :   80
(PID.TID 0000.0001) PTRACERS_names = /* Tracer short name */
(PID.TID 0000.0001)               'c63'
(PID.TID 0000.0001)     ;
(PID.TID 0000.0001) PTRACERS_long_names = /* Tracer long name */
(PID.TID 0000.0001)               ''
(PID.TID 0000.0001)     ;
(PID.TID 0000.0001) PTRACERS_ioLabel = /* tracer IO Label */
(PID.TID 0000.0001)               '80'
(PID.TID 0000.0001)     ;
(PID.TID 0000.0001) PTRACERS_advScheme = /* Advection Scheme */
(PID.TID 0000.0001)                      33
(PID.TID 0000.0001)     ;
(PID.TID 0000.0001) PTRACERS_SOM_Advection = /* tracer uses SOM advection scheme */
(PID.TID 0000.0001)                   F
(PID.TID 0000.0001)     ;
(PID.TID 0000.0001) PTRACERS_ImplVertAdv = /* implicit vert. advection flag */
(PID.TID 0000.0001)                   F
(PID.TID 0000.0001)     ;
(PID.TID 0000.0001) PTRACERS_diffKh = /* Laplacian Diffusivity */
(PID.TID 0000.0001)                 0.000000000000000E+00
(PID.TID 0000.0001)     ;
(PID.TID 0000.0001) PTRACERS_diffK4 = /* Biharmonic Diffusivity */
(PID.TID 0000.0001)                 0.000000000000000E+00
(PID.TID 0000.0001)     ;
(PID.TID 0000.0001) PTRACERS_diffKrNr = /* Vertical Diffusivity */
(PID.TID 0000.0001)    15 @  1.000000000000000E-05              /* K =  1: 15 */
(PID.TID 0000.0001)     ;
(PID.TID 0000.0001) PTRACERS_useGMRedi = /* apply GM-Redi */
(PID.TID 0000.0001)                   T
(PID.TID 0000.0001)     ;
(PID.TID 0000.0001) PTRACERS_useDWNSLP = /* apply DOWN-SLOPE Flow */
(PID.TID 0000.0001)                   F
(PID.TID 0000.0001)     ;
(PID.TID 0000.0001) PTRACERS_useKPP = /* apply KPP scheme */
(PID.TID 0000.0001)                   F
(PID.TID 0000.0001)     ;
(PID.TID 0000.0001) PTRACERS_ref = /* Reference vertical profile */
(PID.TID 0000.0001)    15 @  0.000000000000000E+00              /* K =  1: 15 */
(PID.TID 0000.0001)     ;
(PID.TID 0000.0001) PTRACERS_EvPrRn =/* tracer conc. in Evap. & Rain */
(PID.TID 0000.0001)                 1.234567000000000E+05
(PID.TID 0000.0001)     ;
(PID.TID 0000.0001)  -----------------------------------
(PID.TID 0000.0001)  tracer number :   81
(PID.TID 0000.0001) PTRACERS_names = /* Tracer short name */
(PID.TID 0000.0001)               'c64'
(PID.TID 0000.0001)     ;
(PID.TID 0000.0001) PTRACERS_long_names = /* Tracer long name */
(PID.TID 0000.0001)               ''
(PID.TID 0000.0001)     ;
(PID.TID 0000.0001) PTRACERS_ioLabel = /* tracer IO Label */
(PID.TID 0000.0001)               '81'
(PID.TID 0000.0001)     ;
(PID.TID 0000.0001) PTRACERS_advScheme = /* Advection Scheme */
(PID.TID 0000.0001)                      33
(PID.TID 0000.0001)     ;
(PID.TID 0000.0001) PTRACERS_SOM_Advection = /* tracer uses SOM advection scheme */
(PID.TID 0000.0001)                   F
(PID.TID 0000.0001)     ;
(PID.TID 0000.0001) PTRACERS_ImplVertAdv = /* implicit vert. advection flag */
(PID.TID 0000.0001)                   F
(PID.TID 0000.0001)     ;
(PID.TID 0000.0001) PTRACERS_diffKh = /* Laplacian Diffusivity */
(PID.TID 0000.0001)                 0.000000000000000E+00
(PID.TID 0000.0001)     ;
(PID.TID 0000.0001) PTRACERS_diffK4 = /* Biharmonic Diffusivity */
(PID.TID 0000.0001)                 0.000000000000000E+00
(PID.TID 0000.0001)     ;
(PID.TID 0000.0001) PTRACERS_diffKrNr = /* Vertical Diffusivity */
(PID.TID 0000.0001)    15 @  1.000000000000000E-05              /* K =  1: 15 */
(PID.TID 0000.0001)     ;
(PID.TID 0000.0001) PTRACERS_useGMRedi = /* apply GM-Redi */
(PID.TID 0000.0001)                   T
(PID.TID 0000.0001)     ;
(PID.TID 0000.0001) PTRACERS_useDWNSLP = /* apply DOWN-SLOPE Flow */
(PID.TID 0000.0001)                   F
(PID.TID 0000.0001)     ;
(PID.TID 0000.0001) PTRACERS_useKPP = /* apply KPP scheme */
(PID.TID 0000.0001)                   F
(PID.TID 0000.0001)     ;
(PID.TID 0000.0001) PTRACERS_ref = /* Reference vertical profile */
(PID.TID 0000.0001)    15 @  0.000000000000000E+00              /* K =  1: 15 */
(PID.TID 0000.0001)     ;
(PID.TID 0000.0001) PTRACERS_EvPrRn =/* tracer conc. in Evap. & Rain */
(PID.TID 0000.0001)                 1.234567000000000E+05
(PID.TID 0000.0001)     ;
(PID.TID 0000.0001)  -----------------------------------
(PID.TID 0000.0001)  tracer number :   82
(PID.TID 0000.0001) PTRACERS_names = /* Tracer short name */
(PID.TID 0000.0001)               'c65'
(PID.TID 0000.0001)     ;
(PID.TID 0000.0001) PTRACERS_long_names = /* Tracer long name */
(PID.TID 0000.0001)               ''
(PID.TID 0000.0001)     ;
(PID.TID 0000.0001) PTRACERS_ioLabel = /* tracer IO Label */
(PID.TID 0000.0001)               '82'
(PID.TID 0000.0001)     ;
(PID.TID 0000.0001) PTRACERS_advScheme = /* Advection Scheme */
(PID.TID 0000.0001)                      33
(PID.TID 0000.0001)     ;
(PID.TID 0000.0001) PTRACERS_SOM_Advection = /* tracer uses SOM advection scheme */
(PID.TID 0000.0001)                   F
(PID.TID 0000.0001)     ;
(PID.TID 0000.0001) PTRACERS_ImplVertAdv = /* implicit vert. advection flag */
(PID.TID 0000.0001)                   F
(PID.TID 0000.0001)     ;
(PID.TID 0000.0001) PTRACERS_diffKh = /* Laplacian Diffusivity */
(PID.TID 0000.0001)                 0.000000000000000E+00
(PID.TID 0000.0001)     ;
(PID.TID 0000.0001) PTRACERS_diffK4 = /* Biharmonic Diffusivity */
(PID.TID 0000.0001)                 0.000000000000000E+00
(PID.TID 0000.0001)     ;
(PID.TID 0000.0001) PTRACERS_diffKrNr = /* Vertical Diffusivity */
(PID.TID 0000.0001)    15 @  1.000000000000000E-05              /* K =  1: 15 */
(PID.TID 0000.0001)     ;
(PID.TID 0000.0001) PTRACERS_useGMRedi = /* apply GM-Redi */
(PID.TID 0000.0001)                   T
(PID.TID 0000.0001)     ;
(PID.TID 0000.0001) PTRACERS_useDWNSLP = /* apply DOWN-SLOPE Flow */
(PID.TID 0000.0001)                   F
(PID.TID 0000.0001)     ;
(PID.TID 0000.0001) PTRACERS_useKPP = /* apply KPP scheme */
(PID.TID 0000.0001)                   F
(PID.TID 0000.0001)     ;
(PID.TID 0000.0001) PTRACERS_ref = /* Reference vertical profile */
(PID.TID 0000.0001)    15 @  0.000000000000000E+00              /* K =  1: 15 */
(PID.TID 0000.0001)     ;
(PID.TID 0000.0001) PTRACERS_EvPrRn =/* tracer conc. in Evap. & Rain */
(PID.TID 0000.0001)                 1.234567000000000E+05
(PID.TID 0000.0001)     ;
(PID.TID 0000.0001)  -----------------------------------
(PID.TID 0000.0001)  tracer number :   83
(PID.TID 0000.0001) PTRACERS_names = /* Tracer short name */
(PID.TID 0000.0001)               'c66'
(PID.TID 0000.0001)     ;
(PID.TID 0000.0001) PTRACERS_long_names = /* Tracer long name */
(PID.TID 0000.0001)               ''
(PID.TID 0000.0001)     ;
(PID.TID 0000.0001) PTRACERS_ioLabel = /* tracer IO Label */
(PID.TID 0000.0001)               '83'
(PID.TID 0000.0001)     ;
(PID.TID 0000.0001) PTRACERS_advScheme = /* Advection Scheme */
(PID.TID 0000.0001)                      33
(PID.TID 0000.0001)     ;
(PID.TID 0000.0001) PTRACERS_SOM_Advection = /* tracer uses SOM advection scheme */
(PID.TID 0000.0001)                   F
(PID.TID 0000.0001)     ;
(PID.TID 0000.0001) PTRACERS_ImplVertAdv = /* implicit vert. advection flag */
(PID.TID 0000.0001)                   F
(PID.TID 0000.0001)     ;
(PID.TID 0000.0001) PTRACERS_diffKh = /* Laplacian Diffusivity */
(PID.TID 0000.0001)                 0.000000000000000E+00
(PID.TID 0000.0001)     ;
(PID.TID 0000.0001) PTRACERS_diffK4 = /* Biharmonic Diffusivity */
(PID.TID 0000.0001)                 0.000000000000000E+00
(PID.TID 0000.0001)     ;
(PID.TID 0000.0001) PTRACERS_diffKrNr = /* Vertical Diffusivity */
(PID.TID 0000.0001)    15 @  1.000000000000000E-05              /* K =  1: 15 */
(PID.TID 0000.0001)     ;
(PID.TID 0000.0001) PTRACERS_useGMRedi = /* apply GM-Redi */
(PID.TID 0000.0001)                   T
(PID.TID 0000.0001)     ;
(PID.TID 0000.0001) PTRACERS_useDWNSLP = /* apply DOWN-SLOPE Flow */
(PID.TID 0000.0001)                   F
(PID.TID 0000.0001)     ;
(PID.TID 0000.0001) PTRACERS_useKPP = /* apply KPP scheme */
(PID.TID 0000.0001)                   F
(PID.TID 0000.0001)     ;
(PID.TID 0000.0001) PTRACERS_ref = /* Reference vertical profile */
(PID.TID 0000.0001)    15 @  0.000000000000000E+00              /* K =  1: 15 */
(PID.TID 0000.0001)     ;
(PID.TID 0000.0001) PTRACERS_EvPrRn =/* tracer conc. in Evap. & Rain */
(PID.TID 0000.0001)                 1.234567000000000E+05
(PID.TID 0000.0001)     ;
(PID.TID 0000.0001)  -----------------------------------
(PID.TID 0000.0001)  tracer number :   84
(PID.TID 0000.0001) PTRACERS_names = /* Tracer short name */
(PID.TID 0000.0001)               'c67'
(PID.TID 0000.0001)     ;
(PID.TID 0000.0001) PTRACERS_long_names = /* Tracer long name */
(PID.TID 0000.0001)               ''
(PID.TID 0000.0001)     ;
(PID.TID 0000.0001) PTRACERS_ioLabel = /* tracer IO Label */
(PID.TID 0000.0001)               '84'
(PID.TID 0000.0001)     ;
(PID.TID 0000.0001) PTRACERS_advScheme = /* Advection Scheme */
(PID.TID 0000.0001)                      33
(PID.TID 0000.0001)     ;
(PID.TID 0000.0001) PTRACERS_SOM_Advection = /* tracer uses SOM advection scheme */
(PID.TID 0000.0001)                   F
(PID.TID 0000.0001)     ;
(PID.TID 0000.0001) PTRACERS_ImplVertAdv = /* implicit vert. advection flag */
(PID.TID 0000.0001)                   F
(PID.TID 0000.0001)     ;
(PID.TID 0000.0001) PTRACERS_diffKh = /* Laplacian Diffusivity */
(PID.TID 0000.0001)                 0.000000000000000E+00
(PID.TID 0000.0001)     ;
(PID.TID 0000.0001) PTRACERS_diffK4 = /* Biharmonic Diffusivity */
(PID.TID 0000.0001)                 0.000000000000000E+00
(PID.TID 0000.0001)     ;
(PID.TID 0000.0001) PTRACERS_diffKrNr = /* Vertical Diffusivity */
(PID.TID 0000.0001)    15 @  1.000000000000000E-05              /* K =  1: 15 */
(PID.TID 0000.0001)     ;
(PID.TID 0000.0001) PTRACERS_useGMRedi = /* apply GM-Redi */
(PID.TID 0000.0001)                   T
(PID.TID 0000.0001)     ;
(PID.TID 0000.0001) PTRACERS_useDWNSLP = /* apply DOWN-SLOPE Flow */
(PID.TID 0000.0001)                   F
(PID.TID 0000.0001)     ;
(PID.TID 0000.0001) PTRACERS_useKPP = /* apply KPP scheme */
(PID.TID 0000.0001)                   F
(PID.TID 0000.0001)     ;
(PID.TID 0000.0001) PTRACERS_ref = /* Reference vertical profile */
(PID.TID 0000.0001)    15 @  0.000000000000000E+00              /* K =  1: 15 */
(PID.TID 0000.0001)     ;
(PID.TID 0000.0001) PTRACERS_EvPrRn =/* tracer conc. in Evap. & Rain */
(PID.TID 0000.0001)                 1.234567000000000E+05
(PID.TID 0000.0001)     ;
(PID.TID 0000.0001)  -----------------------------------
(PID.TID 0000.0001)  tracer number :   85
(PID.TID 0000.0001) PTRACERS_names = /* Tracer short name */
(PID.TID 0000.0001)               'c68'
(PID.TID 0000.0001)     ;
(PID.TID 0000.0001) PTRACERS_long_names = /* Tracer long name */
(PID.TID 0000.0001)               ''
(PID.TID 0000.0001)     ;
(PID.TID 0000.0001) PTRACERS_ioLabel = /* tracer IO Label */
(PID.TID 0000.0001)               '85'
(PID.TID 0000.0001)     ;
(PID.TID 0000.0001) PTRACERS_advScheme = /* Advection Scheme */
(PID.TID 0000.0001)                      33
(PID.TID 0000.0001)     ;
(PID.TID 0000.0001) PTRACERS_SOM_Advection = /* tracer uses SOM advection scheme */
(PID.TID 0000.0001)                   F
(PID.TID 0000.0001)     ;
(PID.TID 0000.0001) PTRACERS_ImplVertAdv = /* implicit vert. advection flag */
(PID.TID 0000.0001)                   F
(PID.TID 0000.0001)     ;
(PID.TID 0000.0001) PTRACERS_diffKh = /* Laplacian Diffusivity */
(PID.TID 0000.0001)                 0.000000000000000E+00
(PID.TID 0000.0001)     ;
(PID.TID 0000.0001) PTRACERS_diffK4 = /* Biharmonic Diffusivity */
(PID.TID 0000.0001)                 0.000000000000000E+00
(PID.TID 0000.0001)     ;
(PID.TID 0000.0001) PTRACERS_diffKrNr = /* Vertical Diffusivity */
(PID.TID 0000.0001)    15 @  1.000000000000000E-05              /* K =  1: 15 */
(PID.TID 0000.0001)     ;
(PID.TID 0000.0001) PTRACERS_useGMRedi = /* apply GM-Redi */
(PID.TID 0000.0001)                   T
(PID.TID 0000.0001)     ;
(PID.TID 0000.0001) PTRACERS_useDWNSLP = /* apply DOWN-SLOPE Flow */
(PID.TID 0000.0001)                   F
(PID.TID 0000.0001)     ;
(PID.TID 0000.0001) PTRACERS_useKPP = /* apply KPP scheme */
(PID.TID 0000.0001)                   F
(PID.TID 0000.0001)     ;
(PID.TID 0000.0001) PTRACERS_ref = /* Reference vertical profile */
(PID.TID 0000.0001)    15 @  0.000000000000000E+00              /* K =  1: 15 */
(PID.TID 0000.0001)     ;
(PID.TID 0000.0001) PTRACERS_EvPrRn =/* tracer conc. in Evap. & Rain */
(PID.TID 0000.0001)                 1.234567000000000E+05
(PID.TID 0000.0001)     ;
(PID.TID 0000.0001)  -----------------------------------
(PID.TID 0000.0001)  tracer number :   86
(PID.TID 0000.0001) PTRACERS_names = /* Tracer short name */
(PID.TID 0000.0001)               'c69'
(PID.TID 0000.0001)     ;
(PID.TID 0000.0001) PTRACERS_long_names = /* Tracer long name */
(PID.TID 0000.0001)               ''
(PID.TID 0000.0001)     ;
(PID.TID 0000.0001) PTRACERS_ioLabel = /* tracer IO Label */
(PID.TID 0000.0001)               '86'
(PID.TID 0000.0001)     ;
(PID.TID 0000.0001) PTRACERS_advScheme = /* Advection Scheme */
(PID.TID 0000.0001)                      33
(PID.TID 0000.0001)     ;
(PID.TID 0000.0001) PTRACERS_SOM_Advection = /* tracer uses SOM advection scheme */
(PID.TID 0000.0001)                   F
(PID.TID 0000.0001)     ;
(PID.TID 0000.0001) PTRACERS_ImplVertAdv = /* implicit vert. advection flag */
(PID.TID 0000.0001)                   F
(PID.TID 0000.0001)     ;
(PID.TID 0000.0001) PTRACERS_diffKh = /* Laplacian Diffusivity */
(PID.TID 0000.0001)                 0.000000000000000E+00
(PID.TID 0000.0001)     ;
(PID.TID 0000.0001) PTRACERS_diffK4 = /* Biharmonic Diffusivity */
(PID.TID 0000.0001)                 0.000000000000000E+00
(PID.TID 0000.0001)     ;
(PID.TID 0000.0001) PTRACERS_diffKrNr = /* Vertical Diffusivity */
(PID.TID 0000.0001)    15 @  1.000000000000000E-05              /* K =  1: 15 */
(PID.TID 0000.0001)     ;
(PID.TID 0000.0001) PTRACERS_useGMRedi = /* apply GM-Redi */
(PID.TID 0000.0001)                   T
(PID.TID 0000.0001)     ;
(PID.TID 0000.0001) PTRACERS_useDWNSLP = /* apply DOWN-SLOPE Flow */
(PID.TID 0000.0001)                   F
(PID.TID 0000.0001)     ;
(PID.TID 0000.0001) PTRACERS_useKPP = /* apply KPP scheme */
(PID.TID 0000.0001)                   F
(PID.TID 0000.0001)     ;
(PID.TID 0000.0001) PTRACERS_ref = /* Reference vertical profile */
(PID.TID 0000.0001)    15 @  0.000000000000000E+00              /* K =  1: 15 */
(PID.TID 0000.0001)     ;
(PID.TID 0000.0001) PTRACERS_EvPrRn =/* tracer conc. in Evap. & Rain */
(PID.TID 0000.0001)                 1.234567000000000E+05
(PID.TID 0000.0001)     ;
(PID.TID 0000.0001)  -----------------------------------
(PID.TID 0000.0001)  tracer number :   87
(PID.TID 0000.0001) PTRACERS_names = /* Tracer short name */
(PID.TID 0000.0001)               'c70'
(PID.TID 0000.0001)     ;
(PID.TID 0000.0001) PTRACERS_long_names = /* Tracer long name */
(PID.TID 0000.0001)               ''
(PID.TID 0000.0001)     ;
(PID.TID 0000.0001) PTRACERS_ioLabel = /* tracer IO Label */
(PID.TID 0000.0001)               '87'
(PID.TID 0000.0001)     ;
(PID.TID 0000.0001) PTRACERS_advScheme = /* Advection Scheme */
(PID.TID 0000.0001)                      33
(PID.TID 0000.0001)     ;
(PID.TID 0000.0001) PTRACERS_SOM_Advection = /* tracer uses SOM advection scheme */
(PID.TID 0000.0001)                   F
(PID.TID 0000.0001)     ;
(PID.TID 0000.0001) PTRACERS_ImplVertAdv = /* implicit vert. advection flag */
(PID.TID 0000.0001)                   F
(PID.TID 0000.0001)     ;
(PID.TID 0000.0001) PTRACERS_diffKh = /* Laplacian Diffusivity */
(PID.TID 0000.0001)                 0.000000000000000E+00
(PID.TID 0000.0001)     ;
(PID.TID 0000.0001) PTRACERS_diffK4 = /* Biharmonic Diffusivity */
(PID.TID 0000.0001)                 0.000000000000000E+00
(PID.TID 0000.0001)     ;
(PID.TID 0000.0001) PTRACERS_diffKrNr = /* Vertical Diffusivity */
(PID.TID 0000.0001)    15 @  1.000000000000000E-05              /* K =  1: 15 */
(PID.TID 0000.0001)     ;
(PID.TID 0000.0001) PTRACERS_useGMRedi = /* apply GM-Redi */
(PID.TID 0000.0001)                   T
(PID.TID 0000.0001)     ;
(PID.TID 0000.0001) PTRACERS_useDWNSLP = /* apply DOWN-SLOPE Flow */
(PID.TID 0000.0001)                   F
(PID.TID 0000.0001)     ;
(PID.TID 0000.0001) PTRACERS_useKPP = /* apply KPP scheme */
(PID.TID 0000.0001)                   F
(PID.TID 0000.0001)     ;
(PID.TID 0000.0001) PTRACERS_ref = /* Reference vertical profile */
(PID.TID 0000.0001)    15 @  0.000000000000000E+00              /* K =  1: 15 */
(PID.TID 0000.0001)     ;
(PID.TID 0000.0001) PTRACERS_EvPrRn =/* tracer conc. in Evap. & Rain */
(PID.TID 0000.0001)                 1.234567000000000E+05
(PID.TID 0000.0001)     ;
(PID.TID 0000.0001)  -----------------------------------
(PID.TID 0000.0001)  tracer number :   88
(PID.TID 0000.0001) PTRACERS_names = /* Tracer short name */
(PID.TID 0000.0001)               'c71'
(PID.TID 0000.0001)     ;
(PID.TID 0000.0001) PTRACERS_long_names = /* Tracer long name */
(PID.TID 0000.0001)               ''
(PID.TID 0000.0001)     ;
(PID.TID 0000.0001) PTRACERS_ioLabel = /* tracer IO Label */
(PID.TID 0000.0001)               '88'
(PID.TID 0000.0001)     ;
(PID.TID 0000.0001) PTRACERS_advScheme = /* Advection Scheme */
(PID.TID 0000.0001)                      33
(PID.TID 0000.0001)     ;
(PID.TID 0000.0001) PTRACERS_SOM_Advection = /* tracer uses SOM advection scheme */
(PID.TID 0000.0001)                   F
(PID.TID 0000.0001)     ;
(PID.TID 0000.0001) PTRACERS_ImplVertAdv = /* implicit vert. advection flag */
(PID.TID 0000.0001)                   F
(PID.TID 0000.0001)     ;
(PID.TID 0000.0001) PTRACERS_diffKh = /* Laplacian Diffusivity */
(PID.TID 0000.0001)                 0.000000000000000E+00
(PID.TID 0000.0001)     ;
(PID.TID 0000.0001) PTRACERS_diffK4 = /* Biharmonic Diffusivity */
(PID.TID 0000.0001)                 0.000000000000000E+00
(PID.TID 0000.0001)     ;
(PID.TID 0000.0001) PTRACERS_diffKrNr = /* Vertical Diffusivity */
(PID.TID 0000.0001)    15 @  1.000000000000000E-05              /* K =  1: 15 */
(PID.TID 0000.0001)     ;
(PID.TID 0000.0001) PTRACERS_useGMRedi = /* apply GM-Redi */
(PID.TID 0000.0001)                   T
(PID.TID 0000.0001)     ;
(PID.TID 0000.0001) PTRACERS_useDWNSLP = /* apply DOWN-SLOPE Flow */
(PID.TID 0000.0001)                   F
(PID.TID 0000.0001)     ;
(PID.TID 0000.0001) PTRACERS_useKPP = /* apply KPP scheme */
(PID.TID 0000.0001)                   F
(PID.TID 0000.0001)     ;
(PID.TID 0000.0001) PTRACERS_ref = /* Reference vertical profile */
(PID.TID 0000.0001)    15 @  0.000000000000000E+00              /* K =  1: 15 */
(PID.TID 0000.0001)     ;
(PID.TID 0000.0001) PTRACERS_EvPrRn =/* tracer conc. in Evap. & Rain */
(PID.TID 0000.0001)                 1.234567000000000E+05
(PID.TID 0000.0001)     ;
(PID.TID 0000.0001)  -----------------------------------
(PID.TID 0000.0001)  tracer number :   89
(PID.TID 0000.0001) PTRACERS_names = /* Tracer short name */
(PID.TID 0000.0001)               'c72'
(PID.TID 0000.0001)     ;
(PID.TID 0000.0001) PTRACERS_long_names = /* Tracer long name */
(PID.TID 0000.0001)               ''
(PID.TID 0000.0001)     ;
(PID.TID 0000.0001) PTRACERS_ioLabel = /* tracer IO Label */
(PID.TID 0000.0001)               '89'
(PID.TID 0000.0001)     ;
(PID.TID 0000.0001) PTRACERS_advScheme = /* Advection Scheme */
(PID.TID 0000.0001)                      33
(PID.TID 0000.0001)     ;
(PID.TID 0000.0001) PTRACERS_SOM_Advection = /* tracer uses SOM advection scheme */
(PID.TID 0000.0001)                   F
(PID.TID 0000.0001)     ;
(PID.TID 0000.0001) PTRACERS_ImplVertAdv = /* implicit vert. advection flag */
(PID.TID 0000.0001)                   F
(PID.TID 0000.0001)     ;
(PID.TID 0000.0001) PTRACERS_diffKh = /* Laplacian Diffusivity */
(PID.TID 0000.0001)                 0.000000000000000E+00
(PID.TID 0000.0001)     ;
(PID.TID 0000.0001) PTRACERS_diffK4 = /* Biharmonic Diffusivity */
(PID.TID 0000.0001)                 0.000000000000000E+00
(PID.TID 0000.0001)     ;
(PID.TID 0000.0001) PTRACERS_diffKrNr = /* Vertical Diffusivity */
(PID.TID 0000.0001)    15 @  1.000000000000000E-05              /* K =  1: 15 */
(PID.TID 0000.0001)     ;
(PID.TID 0000.0001) PTRACERS_useGMRedi = /* apply GM-Redi */
(PID.TID 0000.0001)                   T
(PID.TID 0000.0001)     ;
(PID.TID 0000.0001) PTRACERS_useDWNSLP = /* apply DOWN-SLOPE Flow */
(PID.TID 0000.0001)                   F
(PID.TID 0000.0001)     ;
(PID.TID 0000.0001) PTRACERS_useKPP = /* apply KPP scheme */
(PID.TID 0000.0001)                   F
(PID.TID 0000.0001)     ;
(PID.TID 0000.0001) PTRACERS_ref = /* Reference vertical profile */
(PID.TID 0000.0001)    15 @  0.000000000000000E+00              /* K =  1: 15 */
(PID.TID 0000.0001)     ;
(PID.TID 0000.0001) PTRACERS_EvPrRn =/* tracer conc. in Evap. & Rain */
(PID.TID 0000.0001)                 1.234567000000000E+05
(PID.TID 0000.0001)     ;
(PID.TID 0000.0001)  -----------------------------------
(PID.TID 0000.0001)  tracer number :   90
(PID.TID 0000.0001) PTRACERS_names = /* Tracer short name */
(PID.TID 0000.0001)               'c73'
(PID.TID 0000.0001)     ;
(PID.TID 0000.0001) PTRACERS_long_names = /* Tracer long name */
(PID.TID 0000.0001)               ''
(PID.TID 0000.0001)     ;
(PID.TID 0000.0001) PTRACERS_ioLabel = /* tracer IO Label */
(PID.TID 0000.0001)               '90'
(PID.TID 0000.0001)     ;
(PID.TID 0000.0001) PTRACERS_advScheme = /* Advection Scheme */
(PID.TID 0000.0001)                      33
(PID.TID 0000.0001)     ;
(PID.TID 0000.0001) PTRACERS_SOM_Advection = /* tracer uses SOM advection scheme */
(PID.TID 0000.0001)                   F
(PID.TID 0000.0001)     ;
(PID.TID 0000.0001) PTRACERS_ImplVertAdv = /* implicit vert. advection flag */
(PID.TID 0000.0001)                   F
(PID.TID 0000.0001)     ;
(PID.TID 0000.0001) PTRACERS_diffKh = /* Laplacian Diffusivity */
(PID.TID 0000.0001)                 0.000000000000000E+00
(PID.TID 0000.0001)     ;
(PID.TID 0000.0001) PTRACERS_diffK4 = /* Biharmonic Diffusivity */
(PID.TID 0000.0001)                 0.000000000000000E+00
(PID.TID 0000.0001)     ;
(PID.TID 0000.0001) PTRACERS_diffKrNr = /* Vertical Diffusivity */
(PID.TID 0000.0001)    15 @  1.000000000000000E-05              /* K =  1: 15 */
(PID.TID 0000.0001)     ;
(PID.TID 0000.0001) PTRACERS_useGMRedi = /* apply GM-Redi */
(PID.TID 0000.0001)                   T
(PID.TID 0000.0001)     ;
(PID.TID 0000.0001) PTRACERS_useDWNSLP = /* apply DOWN-SLOPE Flow */
(PID.TID 0000.0001)                   F
(PID.TID 0000.0001)     ;
(PID.TID 0000.0001) PTRACERS_useKPP = /* apply KPP scheme */
(PID.TID 0000.0001)                   F
(PID.TID 0000.0001)     ;
(PID.TID 0000.0001) PTRACERS_ref = /* Reference vertical profile */
(PID.TID 0000.0001)    15 @  0.000000000000000E+00              /* K =  1: 15 */
(PID.TID 0000.0001)     ;
(PID.TID 0000.0001) PTRACERS_EvPrRn =/* tracer conc. in Evap. & Rain */
(PID.TID 0000.0001)                 1.234567000000000E+05
(PID.TID 0000.0001)     ;
(PID.TID 0000.0001)  -----------------------------------
(PID.TID 0000.0001)  tracer number :   91
(PID.TID 0000.0001) PTRACERS_names = /* Tracer short name */
(PID.TID 0000.0001)               'c74'
(PID.TID 0000.0001)     ;
(PID.TID 0000.0001) PTRACERS_long_names = /* Tracer long name */
(PID.TID 0000.0001)               ''
(PID.TID 0000.0001)     ;
(PID.TID 0000.0001) PTRACERS_ioLabel = /* tracer IO Label */
(PID.TID 0000.0001)               '91'
(PID.TID 0000.0001)     ;
(PID.TID 0000.0001) PTRACERS_advScheme = /* Advection Scheme */
(PID.TID 0000.0001)                      33
(PID.TID 0000.0001)     ;
(PID.TID 0000.0001) PTRACERS_SOM_Advection = /* tracer uses SOM advection scheme */
(PID.TID 0000.0001)                   F
(PID.TID 0000.0001)     ;
(PID.TID 0000.0001) PTRACERS_ImplVertAdv = /* implicit vert. advection flag */
(PID.TID 0000.0001)                   F
(PID.TID 0000.0001)     ;
(PID.TID 0000.0001) PTRACERS_diffKh = /* Laplacian Diffusivity */
(PID.TID 0000.0001)                 0.000000000000000E+00
(PID.TID 0000.0001)     ;
(PID.TID 0000.0001) PTRACERS_diffK4 = /* Biharmonic Diffusivity */
(PID.TID 0000.0001)                 0.000000000000000E+00
(PID.TID 0000.0001)     ;
(PID.TID 0000.0001) PTRACERS_diffKrNr = /* Vertical Diffusivity */
(PID.TID 0000.0001)    15 @  1.000000000000000E-05              /* K =  1: 15 */
(PID.TID 0000.0001)     ;
(PID.TID 0000.0001) PTRACERS_useGMRedi = /* apply GM-Redi */
(PID.TID 0000.0001)                   T
(PID.TID 0000.0001)     ;
(PID.TID 0000.0001) PTRACERS_useDWNSLP = /* apply DOWN-SLOPE Flow */
(PID.TID 0000.0001)                   F
(PID.TID 0000.0001)     ;
(PID.TID 0000.0001) PTRACERS_useKPP = /* apply KPP scheme */
(PID.TID 0000.0001)                   F
(PID.TID 0000.0001)     ;
(PID.TID 0000.0001) PTRACERS_ref = /* Reference vertical profile */
(PID.TID 0000.0001)    15 @  0.000000000000000E+00              /* K =  1: 15 */
(PID.TID 0000.0001)     ;
(PID.TID 0000.0001) PTRACERS_EvPrRn =/* tracer conc. in Evap. & Rain */
(PID.TID 0000.0001)                 1.234567000000000E+05
(PID.TID 0000.0001)     ;
(PID.TID 0000.0001)  -----------------------------------
(PID.TID 0000.0001)  tracer number :   92
(PID.TID 0000.0001) PTRACERS_names = /* Tracer short name */
(PID.TID 0000.0001)               'c75'
(PID.TID 0000.0001)     ;
(PID.TID 0000.0001) PTRACERS_long_names = /* Tracer long name */
(PID.TID 0000.0001)               ''
(PID.TID 0000.0001)     ;
(PID.TID 0000.0001) PTRACERS_ioLabel = /* tracer IO Label */
(PID.TID 0000.0001)               '92'
(PID.TID 0000.0001)     ;
(PID.TID 0000.0001) PTRACERS_advScheme = /* Advection Scheme */
(PID.TID 0000.0001)                      33
(PID.TID 0000.0001)     ;
(PID.TID 0000.0001) PTRACERS_SOM_Advection = /* tracer uses SOM advection scheme */
(PID.TID 0000.0001)                   F
(PID.TID 0000.0001)     ;
(PID.TID 0000.0001) PTRACERS_ImplVertAdv = /* implicit vert. advection flag */
(PID.TID 0000.0001)                   F
(PID.TID 0000.0001)     ;
(PID.TID 0000.0001) PTRACERS_diffKh = /* Laplacian Diffusivity */
(PID.TID 0000.0001)                 0.000000000000000E+00
(PID.TID 0000.0001)     ;
(PID.TID 0000.0001) PTRACERS_diffK4 = /* Biharmonic Diffusivity */
(PID.TID 0000.0001)                 0.000000000000000E+00
(PID.TID 0000.0001)     ;
(PID.TID 0000.0001) PTRACERS_diffKrNr = /* Vertical Diffusivity */
(PID.TID 0000.0001)    15 @  1.000000000000000E-05              /* K =  1: 15 */
(PID.TID 0000.0001)     ;
(PID.TID 0000.0001) PTRACERS_useGMRedi = /* apply GM-Redi */
(PID.TID 0000.0001)                   T
(PID.TID 0000.0001)     ;
(PID.TID 0000.0001) PTRACERS_useDWNSLP = /* apply DOWN-SLOPE Flow */
(PID.TID 0000.0001)                   F
(PID.TID 0000.0001)     ;
(PID.TID 0000.0001) PTRACERS_useKPP = /* apply KPP scheme */
(PID.TID 0000.0001)                   F
(PID.TID 0000.0001)     ;
(PID.TID 0000.0001) PTRACERS_ref = /* Reference vertical profile */
(PID.TID 0000.0001)    15 @  0.000000000000000E+00              /* K =  1: 15 */
(PID.TID 0000.0001)     ;
(PID.TID 0000.0001) PTRACERS_EvPrRn =/* tracer conc. in Evap. & Rain */
(PID.TID 0000.0001)                 1.234567000000000E+05
(PID.TID 0000.0001)     ;
(PID.TID 0000.0001)  -----------------------------------
(PID.TID 0000.0001)  tracer number :   93
(PID.TID 0000.0001) PTRACERS_names = /* Tracer short name */
(PID.TID 0000.0001)               'c76'
(PID.TID 0000.0001)     ;
(PID.TID 0000.0001) PTRACERS_long_names = /* Tracer long name */
(PID.TID 0000.0001)               ''
(PID.TID 0000.0001)     ;
(PID.TID 0000.0001) PTRACERS_ioLabel = /* tracer IO Label */
(PID.TID 0000.0001)               '93'
(PID.TID 0000.0001)     ;
(PID.TID 0000.0001) PTRACERS_advScheme = /* Advection Scheme */
(PID.TID 0000.0001)                      33
(PID.TID 0000.0001)     ;
(PID.TID 0000.0001) PTRACERS_SOM_Advection = /* tracer uses SOM advection scheme */
(PID.TID 0000.0001)                   F
(PID.TID 0000.0001)     ;
(PID.TID 0000.0001) PTRACERS_ImplVertAdv = /* implicit vert. advection flag */
(PID.TID 0000.0001)                   F
(PID.TID 0000.0001)     ;
(PID.TID 0000.0001) PTRACERS_diffKh = /* Laplacian Diffusivity */
(PID.TID 0000.0001)                 0.000000000000000E+00
(PID.TID 0000.0001)     ;
(PID.TID 0000.0001) PTRACERS_diffK4 = /* Biharmonic Diffusivity */
(PID.TID 0000.0001)                 0.000000000000000E+00
(PID.TID 0000.0001)     ;
(PID.TID 0000.0001) PTRACERS_diffKrNr = /* Vertical Diffusivity */
(PID.TID 0000.0001)    15 @  1.000000000000000E-05              /* K =  1: 15 */
(PID.TID 0000.0001)     ;
(PID.TID 0000.0001) PTRACERS_useGMRedi = /* apply GM-Redi */
(PID.TID 0000.0001)                   T
(PID.TID 0000.0001)     ;
(PID.TID 0000.0001) PTRACERS_useDWNSLP = /* apply DOWN-SLOPE Flow */
(PID.TID 0000.0001)                   F
(PID.TID 0000.0001)     ;
(PID.TID 0000.0001) PTRACERS_useKPP = /* apply KPP scheme */
(PID.TID 0000.0001)                   F
(PID.TID 0000.0001)     ;
(PID.TID 0000.0001) PTRACERS_ref = /* Reference vertical profile */
(PID.TID 0000.0001)    15 @  0.000000000000000E+00              /* K =  1: 15 */
(PID.TID 0000.0001)     ;
(PID.TID 0000.0001) PTRACERS_EvPrRn =/* tracer conc. in Evap. & Rain */
(PID.TID 0000.0001)                 1.234567000000000E+05
(PID.TID 0000.0001)     ;
(PID.TID 0000.0001)  -----------------------------------
(PID.TID 0000.0001)  tracer number :   94
(PID.TID 0000.0001) PTRACERS_names = /* Tracer short name */
(PID.TID 0000.0001)               'c77'
(PID.TID 0000.0001)     ;
(PID.TID 0000.0001) PTRACERS_long_names = /* Tracer long name */
(PID.TID 0000.0001)               ''
(PID.TID 0000.0001)     ;
(PID.TID 0000.0001) PTRACERS_ioLabel = /* tracer IO Label */
(PID.TID 0000.0001)               '94'
(PID.TID 0000.0001)     ;
(PID.TID 0000.0001) PTRACERS_advScheme = /* Advection Scheme */
(PID.TID 0000.0001)                      33
(PID.TID 0000.0001)     ;
(PID.TID 0000.0001) PTRACERS_SOM_Advection = /* tracer uses SOM advection scheme */
(PID.TID 0000.0001)                   F
(PID.TID 0000.0001)     ;
(PID.TID 0000.0001) PTRACERS_ImplVertAdv = /* implicit vert. advection flag */
(PID.TID 0000.0001)                   F
(PID.TID 0000.0001)     ;
(PID.TID 0000.0001) PTRACERS_diffKh = /* Laplacian Diffusivity */
(PID.TID 0000.0001)                 0.000000000000000E+00
(PID.TID 0000.0001)     ;
(PID.TID 0000.0001) PTRACERS_diffK4 = /* Biharmonic Diffusivity */
(PID.TID 0000.0001)                 0.000000000000000E+00
(PID.TID 0000.0001)     ;
(PID.TID 0000.0001) PTRACERS_diffKrNr = /* Vertical Diffusivity */
(PID.TID 0000.0001)    15 @  1.000000000000000E-05              /* K =  1: 15 */
(PID.TID 0000.0001)     ;
(PID.TID 0000.0001) PTRACERS_useGMRedi = /* apply GM-Redi */
(PID.TID 0000.0001)                   T
(PID.TID 0000.0001)     ;
(PID.TID 0000.0001) PTRACERS_useDWNSLP = /* apply DOWN-SLOPE Flow */
(PID.TID 0000.0001)                   F
(PID.TID 0000.0001)     ;
(PID.TID 0000.0001) PTRACERS_useKPP = /* apply KPP scheme */
(PID.TID 0000.0001)                   F
(PID.TID 0000.0001)     ;
(PID.TID 0000.0001) PTRACERS_ref = /* Reference vertical profile */
(PID.TID 0000.0001)    15 @  0.000000000000000E+00              /* K =  1: 15 */
(PID.TID 0000.0001)     ;
(PID.TID 0000.0001) PTRACERS_EvPrRn =/* tracer conc. in Evap. & Rain */
(PID.TID 0000.0001)                 1.234567000000000E+05
(PID.TID 0000.0001)     ;
(PID.TID 0000.0001)  -----------------------------------
(PID.TID 0000.0001)  tracer number :   95
(PID.TID 0000.0001) PTRACERS_names = /* Tracer short name */
(PID.TID 0000.0001)               'c78'
(PID.TID 0000.0001)     ;
(PID.TID 0000.0001) PTRACERS_long_names = /* Tracer long name */
(PID.TID 0000.0001)               ''
(PID.TID 0000.0001)     ;
(PID.TID 0000.0001) PTRACERS_ioLabel = /* tracer IO Label */
(PID.TID 0000.0001)               '95'
(PID.TID 0000.0001)     ;
(PID.TID 0000.0001) PTRACERS_advScheme = /* Advection Scheme */
(PID.TID 0000.0001)                      33
(PID.TID 0000.0001)     ;
(PID.TID 0000.0001) PTRACERS_SOM_Advection = /* tracer uses SOM advection scheme */
(PID.TID 0000.0001)                   F
(PID.TID 0000.0001)     ;
(PID.TID 0000.0001) PTRACERS_ImplVertAdv = /* implicit vert. advection flag */
(PID.TID 0000.0001)                   F
(PID.TID 0000.0001)     ;
(PID.TID 0000.0001) PTRACERS_diffKh = /* Laplacian Diffusivity */
(PID.TID 0000.0001)                 0.000000000000000E+00
(PID.TID 0000.0001)     ;
(PID.TID 0000.0001) PTRACERS_diffK4 = /* Biharmonic Diffusivity */
(PID.TID 0000.0001)                 0.000000000000000E+00
(PID.TID 0000.0001)     ;
(PID.TID 0000.0001) PTRACERS_diffKrNr = /* Vertical Diffusivity */
(PID.TID 0000.0001)    15 @  1.000000000000000E-05              /* K =  1: 15 */
(PID.TID 0000.0001)     ;
(PID.TID 0000.0001) PTRACERS_useGMRedi = /* apply GM-Redi */
(PID.TID 0000.0001)                   T
(PID.TID 0000.0001)     ;
(PID.TID 0000.0001) PTRACERS_useDWNSLP = /* apply DOWN-SLOPE Flow */
(PID.TID 0000.0001)                   F
(PID.TID 0000.0001)     ;
(PID.TID 0000.0001) PTRACERS_useKPP = /* apply KPP scheme */
(PID.TID 0000.0001)                   F
(PID.TID 0000.0001)     ;
(PID.TID 0000.0001) PTRACERS_ref = /* Reference vertical profile */
(PID.TID 0000.0001)    15 @  0.000000000000000E+00              /* K =  1: 15 */
(PID.TID 0000.0001)     ;
(PID.TID 0000.0001) PTRACERS_EvPrRn =/* tracer conc. in Evap. & Rain */
(PID.TID 0000.0001)                 1.234567000000000E+05
(PID.TID 0000.0001)     ;
(PID.TID 0000.0001)  -----------------------------------
(PID.TID 0000.0001)  tracer number :   96
(PID.TID 0000.0001) PTRACERS_names = /* Tracer short name */
(PID.TID 0000.0001)               'zc1'
(PID.TID 0000.0001)     ;
(PID.TID 0000.0001) PTRACERS_long_names = /* Tracer long name */
(PID.TID 0000.0001)               ''
(PID.TID 0000.0001)     ;
(PID.TID 0000.0001) PTRACERS_ioLabel = /* tracer IO Label */
(PID.TID 0000.0001)               '96'
(PID.TID 0000.0001)     ;
(PID.TID 0000.0001) PTRACERS_advScheme = /* Advection Scheme */
(PID.TID 0000.0001)                      33
(PID.TID 0000.0001)     ;
(PID.TID 0000.0001) PTRACERS_SOM_Advection = /* tracer uses SOM advection scheme */
(PID.TID 0000.0001)                   F
(PID.TID 0000.0001)     ;
(PID.TID 0000.0001) PTRACERS_ImplVertAdv = /* implicit vert. advection flag */
(PID.TID 0000.0001)                   F
(PID.TID 0000.0001)     ;
(PID.TID 0000.0001) PTRACERS_diffKh = /* Laplacian Diffusivity */
(PID.TID 0000.0001)                 0.000000000000000E+00
(PID.TID 0000.0001)     ;
(PID.TID 0000.0001) PTRACERS_diffK4 = /* Biharmonic Diffusivity */
(PID.TID 0000.0001)                 0.000000000000000E+00
(PID.TID 0000.0001)     ;
(PID.TID 0000.0001) PTRACERS_diffKrNr = /* Vertical Diffusivity */
(PID.TID 0000.0001)    15 @  1.000000000000000E-05              /* K =  1: 15 */
(PID.TID 0000.0001)     ;
(PID.TID 0000.0001) PTRACERS_useGMRedi = /* apply GM-Redi */
(PID.TID 0000.0001)                   T
(PID.TID 0000.0001)     ;
(PID.TID 0000.0001) PTRACERS_useDWNSLP = /* apply DOWN-SLOPE Flow */
(PID.TID 0000.0001)                   F
(PID.TID 0000.0001)     ;
(PID.TID 0000.0001) PTRACERS_useKPP = /* apply KPP scheme */
(PID.TID 0000.0001)                   F
(PID.TID 0000.0001)     ;
(PID.TID 0000.0001) PTRACERS_ref = /* Reference vertical profile */
(PID.TID 0000.0001)    15 @  0.000000000000000E+00              /* K =  1: 15 */
(PID.TID 0000.0001)     ;
(PID.TID 0000.0001) PTRACERS_EvPrRn =/* tracer conc. in Evap. & Rain */
(PID.TID 0000.0001)                 1.234567000000000E+05
(PID.TID 0000.0001)     ;
(PID.TID 0000.0001)  -----------------------------------
(PID.TID 0000.0001)  tracer number :   97
(PID.TID 0000.0001) PTRACERS_names = /* Tracer short name */
(PID.TID 0000.0001)               'zc2'
(PID.TID 0000.0001)     ;
(PID.TID 0000.0001) PTRACERS_long_names = /* Tracer long name */
(PID.TID 0000.0001)               ''
(PID.TID 0000.0001)     ;
(PID.TID 0000.0001) PTRACERS_ioLabel = /* tracer IO Label */
(PID.TID 0000.0001)               '97'
(PID.TID 0000.0001)     ;
(PID.TID 0000.0001) PTRACERS_advScheme = /* Advection Scheme */
(PID.TID 0000.0001)                      33
(PID.TID 0000.0001)     ;
(PID.TID 0000.0001) PTRACERS_SOM_Advection = /* tracer uses SOM advection scheme */
(PID.TID 0000.0001)                   F
(PID.TID 0000.0001)     ;
(PID.TID 0000.0001) PTRACERS_ImplVertAdv = /* implicit vert. advection flag */
(PID.TID 0000.0001)                   F
(PID.TID 0000.0001)     ;
(PID.TID 0000.0001) PTRACERS_diffKh = /* Laplacian Diffusivity */
(PID.TID 0000.0001)                 0.000000000000000E+00
(PID.TID 0000.0001)     ;
(PID.TID 0000.0001) PTRACERS_diffK4 = /* Biharmonic Diffusivity */
(PID.TID 0000.0001)                 0.000000000000000E+00
(PID.TID 0000.0001)     ;
(PID.TID 0000.0001) PTRACERS_diffKrNr = /* Vertical Diffusivity */
(PID.TID 0000.0001)    15 @  1.000000000000000E-05              /* K =  1: 15 */
(PID.TID 0000.0001)     ;
(PID.TID 0000.0001) PTRACERS_useGMRedi = /* apply GM-Redi */
(PID.TID 0000.0001)                   T
(PID.TID 0000.0001)     ;
(PID.TID 0000.0001) PTRACERS_useDWNSLP = /* apply DOWN-SLOPE Flow */
(PID.TID 0000.0001)                   F
(PID.TID 0000.0001)     ;
(PID.TID 0000.0001) PTRACERS_useKPP = /* apply KPP scheme */
(PID.TID 0000.0001)                   F
(PID.TID 0000.0001)     ;
(PID.TID 0000.0001) PTRACERS_ref = /* Reference vertical profile */
(PID.TID 0000.0001)    15 @  0.000000000000000E+00              /* K =  1: 15 */
(PID.TID 0000.0001)     ;
(PID.TID 0000.0001) PTRACERS_EvPrRn =/* tracer conc. in Evap. & Rain */
(PID.TID 0000.0001)                 1.234567000000000E+05
(PID.TID 0000.0001)     ;
(PID.TID 0000.0001)  -----------------------------------
(PID.TID 0000.0001) GCHEM_CHECK: #define ALLOW_GCHEM
(PID.TID 0000.0001) DARWIN_CHECK: #define ALLOW_DARWIN
(PID.TID 0000.0001) DARWIN_CHECK: iPtr darwin   PTRACERS_names
(PID.TID 0000.0001) DARWIN_CHECK:    1 DIC      DIC
(PID.TID 0000.0001) DARWIN_CHECK:    2 NH4      NH4
(PID.TID 0000.0001) DARWIN_CHECK:    3 NO2      NO2
(PID.TID 0000.0001) DARWIN_CHECK:    4 NO3      NO3
(PID.TID 0000.0001) DARWIN_CHECK:    5 PO4      PO4
(PID.TID 0000.0001) DARWIN_CHECK:    6 SiO2     SiO2
(PID.TID 0000.0001) DARWIN_CHECK:    7 FeT      FeT
(PID.TID 0000.0001) DARWIN_CHECK:    8 DOC      DOC
(PID.TID 0000.0001) DARWIN_CHECK:    9 DON      DON
(PID.TID 0000.0001) DARWIN_CHECK:   10 DOP      DOP
(PID.TID 0000.0001) DARWIN_CHECK:   11 DOFe     DOFe
(PID.TID 0000.0001) DARWIN_CHECK:   12 POC      POC
(PID.TID 0000.0001) DARWIN_CHECK:   13 PON      PON
(PID.TID 0000.0001) DARWIN_CHECK:   14 POP      POP
(PID.TID 0000.0001) DARWIN_CHECK:   15 POSi     POSi
(PID.TID 0000.0001) DARWIN_CHECK:   16 POFe     POFe
(PID.TID 0000.0001) DARWIN_CHECK:   17 PIC      PIC
(PID.TID 0000.0001) DARWIN_CHECK:   18 c    (1) c01
(PID.TID 0000.0001) DARWIN_CHECK:   19 c    (2) c02
(PID.TID 0000.0001) DARWIN_CHECK:   20 c    (3) c03
(PID.TID 0000.0001) DARWIN_CHECK:   21 c    (4) c04
(PID.TID 0000.0001) DARWIN_CHECK:   22 c    (5) c05
(PID.TID 0000.0001) DARWIN_CHECK:   23 c    (6) c06
(PID.TID 0000.0001) DARWIN_CHECK:   24 c    (7) c07
(PID.TID 0000.0001) DARWIN_CHECK:   25 c    (8) c08
(PID.TID 0000.0001) DARWIN_CHECK:   26 c    (9) c09
(PID.TID 0000.0001) DARWIN_CHECK:   27 c    (*) c10
(PID.TID 0000.0001) DARWIN_CHECK:   28 c    (*) c11
(PID.TID 0000.0001) DARWIN_CHECK:   29 c    (*) c12
(PID.TID 0000.0001) DARWIN_CHECK:   30 c    (*) c13
(PID.TID 0000.0001) DARWIN_CHECK:   31 c    (*) c14
(PID.TID 0000.0001) DARWIN_CHECK:   32 c    (*) c15
(PID.TID 0000.0001) DARWIN_CHECK:   33 c    (*) c16
(PID.TID 0000.0001) DARWIN_CHECK:   34 c    (*) c17
(PID.TID 0000.0001) DARWIN_CHECK:   35 c    (*) c18
(PID.TID 0000.0001) DARWIN_CHECK:   36 c    (*) c19
(PID.TID 0000.0001) DARWIN_CHECK:   37 c    (*) c20
(PID.TID 0000.0001) DARWIN_CHECK:   38 c    (*) c21
(PID.TID 0000.0001) DARWIN_CHECK:   39 c    (*) c22
(PID.TID 0000.0001) DARWIN_CHECK:   40 c    (*) c23
(PID.TID 0000.0001) DARWIN_CHECK:   41 c    (*) c24
(PID.TID 0000.0001) DARWIN_CHECK:   42 c    (*) c25
(PID.TID 0000.0001) DARWIN_CHECK:   43 c    (*) c26
(PID.TID 0000.0001) DARWIN_CHECK:   44 c    (*) c27
(PID.TID 0000.0001) DARWIN_CHECK:   45 c    (*) c28
(PID.TID 0000.0001) DARWIN_CHECK:   46 c    (*) c29
(PID.TID 0000.0001) DARWIN_CHECK:   47 c    (*) c30
(PID.TID 0000.0001) DARWIN_CHECK:   48 c    (*) c31
(PID.TID 0000.0001) DARWIN_CHECK:   49 c    (*) c32
(PID.TID 0000.0001) DARWIN_CHECK:   50 c    (*) c33
(PID.TID 0000.0001) DARWIN_CHECK:   51 c    (*) c34
(PID.TID 0000.0001) DARWIN_CHECK:   52 c    (*) c35
(PID.TID 0000.0001) DARWIN_CHECK:   53 c    (*) c36
(PID.TID 0000.0001) DARWIN_CHECK:   54 c    (*) c37
(PID.TID 0000.0001) DARWIN_CHECK:   55 c    (*) c38
(PID.TID 0000.0001) DARWIN_CHECK:   56 c    (*) c39
(PID.TID 0000.0001) DARWIN_CHECK:   57 c    (*) c40
(PID.TID 0000.0001) DARWIN_CHECK:   58 c    (*) c41
(PID.TID 0000.0001) DARWIN_CHECK:   59 c    (*) c42
(PID.TID 0000.0001) DARWIN_CHECK:   60 c    (*) c43
(PID.TID 0000.0001) DARWIN_CHECK:   61 c    (*) c44
(PID.TID 0000.0001) DARWIN_CHECK:   62 c    (*) c45
(PID.TID 0000.0001) DARWIN_CHECK:   63 c    (*) c46
(PID.TID 0000.0001) DARWIN_CHECK:   64 c    (*) c47
(PID.TID 0000.0001) DARWIN_CHECK:   65 c    (*) c48
(PID.TID 0000.0001) DARWIN_CHECK:   66 c    (*) c49
(PID.TID 0000.0001) DARWIN_CHECK:   67 c    (*) c50
(PID.TID 0000.0001) DARWIN_CHECK:   68 c    (*) c51
(PID.TID 0000.0001) DARWIN_CHECK:   69 c    (*) c52
(PID.TID 0000.0001) DARWIN_CHECK:   70 c    (*) c53
(PID.TID 0000.0001) DARWIN_CHECK:   71 c    (*) c54
(PID.TID 0000.0001) DARWIN_CHECK:   72 c    (*) c55
(PID.TID 0000.0001) DARWIN_CHECK:   73 c    (*) c56
(PID.TID 0000.0001) DARWIN_CHECK:   74 c    (*) c57
(PID.TID 0000.0001) DARWIN_CHECK:   75 c    (*) c58
(PID.TID 0000.0001) DARWIN_CHECK:   76 c    (*) c59
(PID.TID 0000.0001) DARWIN_CHECK:   77 c    (*) c60
(PID.TID 0000.0001) DARWIN_CHECK:   78 c    (*) c61
(PID.TID 0000.0001) DARWIN_CHECK:   79 c    (*) c62
(PID.TID 0000.0001) DARWIN_CHECK:   80 c    (*) c63
(PID.TID 0000.0001) DARWIN_CHECK:   81 c    (*) c64
(PID.TID 0000.0001) DARWIN_CHECK:   82 c    (*) c65
(PID.TID 0000.0001) DARWIN_CHECK:   83 c    (*) c66
(PID.TID 0000.0001) DARWIN_CHECK:   84 c    (*) c67
(PID.TID 0000.0001) DARWIN_CHECK:   85 c    (*) c68
(PID.TID 0000.0001) DARWIN_CHECK:   86 c    (*) c69
(PID.TID 0000.0001) DARWIN_CHECK:   87 c    (*) c70
(PID.TID 0000.0001) DARWIN_CHECK:   88 c    (*) c71
(PID.TID 0000.0001) DARWIN_CHECK:   89 c    (*) c72
(PID.TID 0000.0001) DARWIN_CHECK:   90 c    (*) c73
(PID.TID 0000.0001) DARWIN_CHECK:   91 c    (*) c74
(PID.TID 0000.0001) DARWIN_CHECK:   92 c    (*) c75
(PID.TID 0000.0001) DARWIN_CHECK:   93 c    (*) c76
(PID.TID 0000.0001) DARWIN_CHECK:   94 c    (*) c77
(PID.TID 0000.0001) DARWIN_CHECK:   95 c    (*) c78
(PID.TID 0000.0001) DARWIN_CHECK:   96 c    (*) zc1
(PID.TID 0000.0001) DARWIN_CHECK:   97 c    (*) zc2
(PID.TID 0000.0001) GAD_CHECK: #define ALLOW_GENERIC_ADVDIFF
(PID.TID 0000.0001) // =======================================================
(PID.TID 0000.0001) // Check Model config. (CONFIG_CHECK):
(PID.TID 0000.0001) // CONFIG_CHECK : Normal End
(PID.TID 0000.0001) // =======================================================
(PID.TID 0000.0001) 
(PID.TID 0000.0001)  MDS_READ_META: opening file: pickup.0005644800.meta
(PID.TID 0000.0001)  nRecords = 123 ; filePrec =  64 ; fileIter =   5644800
(PID.TID 0000.0001)     nDims =   2 , dims:
(PID.TID 0000.0001)    1: 128   1 128
(PID.TID 0000.0001)    2:  64   1  64
(PID.TID 0000.0001)     nFlds =   0 , nFl3D =   0 , fields:
(PID.TID 0000.0001)   nTimRec =   0 , timeList:
(PID.TID 0000.0001)  MDS_READ_FIELD: opening global file: pickup.0005644800.data
(PID.TID 0000.0001)  MDS_READ_FIELD: opening global file: pickup.0005644800.data
(PID.TID 0000.0001)  MDS_READ_FIELD: opening global file: pickup.0005644800.data
(PID.TID 0000.0001)  MDS_READ_FIELD: opening global file: pickup.0005644800.data
(PID.TID 0000.0001)  MDS_READ_FIELD: opening global file: pickup.0005644800.data
(PID.TID 0000.0001)  MDS_READ_FIELD: opening global file: pickup.0005644800.data
(PID.TID 0000.0001)  MDS_READ_FIELD: opening global file: pickup.0005644800.data
(PID.TID 0000.0001)  MDS_READ_FIELD: opening global file: pickup.0005644800.data
(PID.TID 0000.0001)  MDS_READ_FIELD: opening global file: pickup.0005644800.data
(PID.TID 0000.0001) READ_MFLDS_CHECK: - normal end ; reset MFLDS file-name: pickup.0005644800
(PID.TID 0000.0001)  MDS_READ_FIELD: opening global file: ../input/input_ocmip/tren_taux.bin
(PID.TID 0000.0001)  MDS_READ_FIELD: opening global file: ../input/input_ocmip/tren_tauy.bin
(PID.TID 0000.0001)  MDS_READ_FIELD: opening global file: ../input/input_ocmip/shi_qnet.bin
(PID.TID 0000.0001)  MDS_READ_FIELD: opening global file: ../input/input_ocmip/shi_empmr_year.bin
(PID.TID 0000.0001)  MDS_READ_FIELD: opening global file: ../input/input_ocmip/lev_monthly_temp.bin
(PID.TID 0000.0001)  MDS_READ_FIELD: opening global file: ../input/input_ocmip/lev_monthly_salt.bin
(PID.TID 0000.0001)  write diagnostics summary to file ioUnit:      6
Iter.Nb:   5644800 ; Time(s):  2.4385536000000E+11
------------------------------------------------------------------------
2D/3D diagnostics: Number of lists:     1
------------------------------------------------------------------------
listId=    1 ; file name: darwin
 nFlds, nActive,       freq     &     phase        , nLev               
  125  |  125  |     43200.000000         0.000000 |  15
 levels:   1   2   3   4   5   6   7   8   9  10  11  12  13  14  15
 diag# | name   |   ipt  |  iMate | kLev|   count |   mate.C|           
   224 |TRAC01  |      1 |      0 |  15 |       0 |
   236 |TRAC02  |     16 |      0 |  15 |       0 |
   248 |TRAC03  |     31 |      0 |  15 |       0 |
   260 |TRAC04  |     46 |      0 |  15 |       0 |
   272 |TRAC05  |     61 |      0 |  15 |       0 |
   284 |TRAC06  |     76 |      0 |  15 |       0 |
   296 |TRAC07  |     91 |      0 |  15 |       0 |
   308 |TRAC08  |    106 |      0 |  15 |       0 |
   320 |TRAC09  |    121 |      0 |  15 |       0 |
   332 |TRAC10  |    136 |      0 |  15 |       0 |
   344 |TRAC11  |    151 |      0 |  15 |       0 |
   356 |TRAC12  |    166 |      0 |  15 |       0 |
   368 |TRAC13  |    181 |      0 |  15 |       0 |
   380 |TRAC14  |    196 |      0 |  15 |       0 |
   392 |TRAC15  |    211 |      0 |  15 |       0 |
   404 |TRAC16  |    226 |      0 |  15 |       0 |
   416 |TRAC17  |    241 |      0 |  15 |       0 |
   428 |TRAC18  |    256 |      0 |  15 |       0 |
   440 |TRAC19  |    271 |      0 |  15 |       0 |
   452 |TRAC20  |    286 |      0 |  15 |       0 |
   464 |TRAC21  |    301 |      0 |  15 |       0 |
   476 |TRAC22  |    316 |      0 |  15 |       0 |
   488 |TRAC23  |    331 |      0 |  15 |       0 |
   500 |TRAC24  |    346 |      0 |  15 |       0 |
   512 |TRAC25  |    361 |      0 |  15 |       0 |
   524 |TRAC26  |    376 |      0 |  15 |       0 |
   536 |TRAC27  |    391 |      0 |  15 |       0 |
   548 |TRAC28  |    406 |      0 |  15 |       0 |
   560 |TRAC29  |    421 |      0 |  15 |       0 |
   572 |TRAC30  |    436 |      0 |  15 |       0 |
   584 |TRAC31  |    451 |      0 |  15 |       0 |
   596 |TRAC32  |    466 |      0 |  15 |       0 |
   608 |TRAC33  |    481 |      0 |  15 |       0 |
   620 |TRAC34  |    496 |      0 |  15 |       0 |
   632 |TRAC35  |    511 |      0 |  15 |       0 |
   644 |TRAC36  |    526 |      0 |  15 |       0 |
   656 |TRAC37  |    541 |      0 |  15 |       0 |
   668 |TRAC38  |    556 |      0 |  15 |       0 |
   680 |TRAC39  |    571 |      0 |  15 |       0 |
   692 |TRAC40  |    586 |      0 |  15 |       0 |
   704 |TRAC41  |    601 |      0 |  15 |       0 |
   716 |TRAC42  |    616 |      0 |  15 |       0 |
   728 |TRAC43  |    631 |      0 |  15 |       0 |
   740 |TRAC44  |    646 |      0 |  15 |       0 |
   752 |TRAC45  |    661 |      0 |  15 |       0 |
   764 |TRAC46  |    676 |      0 |  15 |       0 |
   776 |TRAC47  |    691 |      0 |  15 |       0 |
   788 |TRAC48  |    706 |      0 |  15 |       0 |
   800 |TRAC49  |    721 |      0 |  15 |       0 |
   812 |TRAC50  |    736 |      0 |  15 |       0 |
   824 |TRAC51  |    751 |      0 |  15 |       0 |
   836 |TRAC52  |    766 |      0 |  15 |       0 |
   848 |TRAC53  |    781 |      0 |  15 |       0 |
   860 |TRAC54  |    796 |      0 |  15 |       0 |
   872 |TRAC55  |    811 |      0 |  15 |       0 |
   884 |TRAC56  |    826 |      0 |  15 |       0 |
   896 |TRAC57  |    841 |      0 |  15 |       0 |
   908 |TRAC58  |    856 |      0 |  15 |       0 |
   920 |TRAC59  |    871 |      0 |  15 |       0 |
   932 |TRAC60  |    886 |      0 |  15 |       0 |
   944 |TRAC61  |    901 |      0 |  15 |       0 |
   956 |TRAC62  |    916 |      0 |  15 |       0 |
   968 |TRAC63  |    931 |      0 |  15 |       0 |
   980 |TRAC64  |    946 |      0 |  15 |       0 |
   992 |TRAC65  |    961 |      0 |  15 |       0 |
  1004 |TRAC66  |    976 |      0 |  15 |       0 |
  1016 |TRAC67  |    991 |      0 |  15 |       0 |
  1028 |TRAC68  |   1006 |      0 |  15 |       0 |
  1040 |TRAC69  |   1021 |      0 |  15 |       0 |
  1052 |TRAC70  |   1036 |      0 |  15 |       0 |
  1064 |TRAC71  |   1051 |      0 |  15 |       0 |
  1076 |TRAC72  |   1066 |      0 |  15 |       0 |
  1088 |TRAC73  |   1081 |      0 |  15 |       0 |
  1100 |TRAC74  |   1096 |      0 |  15 |       0 |
  1112 |TRAC75  |   1111 |      0 |  15 |       0 |
  1124 |TRAC76  |   1126 |      0 |  15 |       0 |
  1136 |TRAC77  |   1141 |      0 |  15 |       0 |
  1148 |TRAC78  |   1156 |      0 |  15 |       0 |
  1160 |TRAC79  |   1171 |      0 |  15 |       0 |
  1172 |TRAC80  |   1186 |      0 |  15 |       0 |
  1184 |TRAC81  |   1201 |      0 |  15 |       0 |
  1196 |TRAC82  |   1216 |      0 |  15 |       0 |
  1208 |TRAC83  |   1231 |      0 |  15 |       0 |
  1220 |TRAC84  |   1246 |      0 |  15 |       0 |
  1232 |TRAC85  |   1261 |      0 |  15 |       0 |
  1244 |TRAC86  |   1276 |      0 |  15 |       0 |
  1256 |TRAC87  |   1291 |      0 |  15 |       0 |
  1268 |TRAC88  |   1306 |      0 |  15 |       0 |
  1280 |TRAC89  |   1321 |      0 |  15 |       0 |
  1292 |TRAC90  |   1336 |      0 |  15 |       0 |
  1304 |TRAC91  |   1351 |      0 |  15 |       0 |
  1316 |TRAC92  |   1366 |      0 |  15 |       0 |
  1328 |TRAC93  |   1381 |      0 |  15 |       0 |
  1340 |TRAC94  |   1396 |      0 |  15 |       0 |
  1352 |TRAC95  |   1411 |      0 |  15 |       0 |
  1364 |TRAC96  |   1426 |      0 |  15 |       0 |
  1376 |TRAC97  |   1441 |      0 |  15 |       0 |
  1393 |PAR01   |   1456 |      0 |  15 |       0 |
  1400 |DIC_c01 |   1471 |      0 |  15 |       0 |
  1411 |DIC_c02 |   1486 |      0 |  15 |       0 |
  1401 |c01_DOC |   1501 |      0 |  15 |       0 |
  1412 |c02_DOC |   1516 |      0 |  15 |       0 |
  1402 |c01_POC |   1531 |      0 |  15 |       0 |
  1413 |c02_POC |   1546 |      0 |  15 |       0 |
  1392 |PARF    |   1561 |      0 |  15 |       0 |
  1389 |atten   |   1576 |      0 |  15 |       0 |
  1391 |surfPAR |   1591 |      0 |  15 |       0 |
  1390 |exfPAR  |   1606 |      0 |  15 |       0 |
  1394 |limn01  |   1621 |      0 |  15 |       0 |
  1395 |limp01  |   1636 |      0 |  15 |       0 |
  1396 |limsi01 |   1651 |      0 |  15 |       0 |
  1397 |limfe01 |   1666 |      0 |  15 |       0 |
  1398 |limI01  |   1681 |      0 |  15 |       0 |
  1399 |limT01  |   1696 |      0 |  15 |       0 |
  1403 |c01_c   |   1711 |      0 |  15 |       0 |
  1414 |c02_c   |   1726 |      0 |  15 |       0 |
  1426 |c_c03   |   1741 |      0 |  15 |       0 |
  1437 |c_c04   |   1756 |      0 |  15 |       0 |
  2274 |c_DOC   |   1771 |      0 |  15 |       0 |
  2275 |c_POC   |   1786 |      0 |  15 |       0 |
  2276 |c_PIC   |   1801 |      0 |  15 |       0 |
  2277 |n_DON   |   1816 |      0 |  15 |       0 |
  2278 |n_PON   |   1831 |      0 |  15 |       0 |
  2279 |p_DOP   |   1846 |      0 |  15 |       0 |
  2280 |p_POP   |   1861 |      0 |  15 |       0 |
------------------------------------------------------------------------
Global & Regional Statistics diagnostics: Number of lists:     0
------------------------------------------------------------------------
(PID.TID 0000.0001)  MDS_READ_FIELD: opening global file: pickup_cd.0005644800.data
(PID.TID 0000.0001)  MDS_READ_FIELD: opening global file: pickup_cd.0005644800.data
(PID.TID 0000.0001)  MDS_READ_FIELD: opening global file: pickup_cd.0005644800.data
(PID.TID 0000.0001)  MDS_READ_FIELD: opening global file: pickup_cd.0005644800.data
(PID.TID 0000.0001)  MDS_READ_FIELD: opening global file: pickup_cd.0005644800.data
(PID.TID 0000.0001)  MDS_READ_FIELD: opening global file: ../input/input_ocmip/nh4_run1_ocmip.bin
(PID.TID 0000.0001)  MDS_READ_FIELD: opening global file: ../input/input_ocmip/no2_run1_ocmip.bin
(PID.TID 0000.0001)  MDS_READ_FIELD: opening global file: ../input/input_ocmip/no3_uM.bin
(PID.TID 0000.0001)  MDS_READ_FIELD: opening global file: ../input/input_ocmip/po4_uM.bin
(PID.TID 0000.0001)  MDS_READ_FIELD: opening global file: ../input/input_ocmip/sio2_uM.bin
(PID.TID 0000.0001)  MDS_READ_FIELD: opening global file: ../input/input_ocmip/fet_run136.bin
(PID.TID 0000.0001)  MDS_READ_FIELD: opening global file: ../input/input_ocmip/don_init.bin
(PID.TID 0000.0001)  MDS_READ_FIELD: opening global file: ../input/input_ocmip/dop_run136.bin
(PID.TID 0000.0001)  MDS_READ_FIELD: opening global file: ../input/input_ocmip/dof_run136.bin
(PID.TID 0000.0001)  MDS_READ_FIELD: opening global file: ../input/input_ocmip/pon_init.bin
(PID.TID 0000.0001)  MDS_READ_FIELD: opening global file: ../input/input_ocmip/pop_run136.bin
(PID.TID 0000.0001)  MDS_READ_FIELD: opening global file: ../input/input_ocmip/pos_run136.bin
(PID.TID 0000.0001)  MDS_READ_FIELD: opening global file: ../input/input_ocmip/pof_run136.bin
(PID.TID 0000.0001)  MDS_READ_FIELD: opening global file: ../input/input_ocmip/seawifs_chl_p78.bin
(PID.TID 0000.0001)  MDS_READ_FIELD: opening global file: ../input/input_ocmip/seawifs_chl_p78.bin
(PID.TID 0000.0001)  MDS_READ_FIELD: opening global file: ../input/input_ocmip/seawifs_chl_p78.bin
(PID.TID 0000.0001)  MDS_READ_FIELD: opening global file: ../input/input_ocmip/seawifs_chl_p78.bin
(PID.TID 0000.0001)  MDS_READ_FIELD: opening global file: ../input/input_ocmip/seawifs_chl_p78.bin
(PID.TID 0000.0001)  MDS_READ_FIELD: opening global file: ../input/input_ocmip/seawifs_chl_p78.bin
(PID.TID 0000.0001)  MDS_READ_FIELD: opening global file: ../input/input_ocmip/seawifs_chl_p78.bin
(PID.TID 0000.0001)  MDS_READ_FIELD: opening global file: ../input/input_ocmip/seawifs_chl_p78.bin
(PID.TID 0000.0001)  MDS_READ_FIELD: opening global file: ../input/input_ocmip/seawifs_chl_p78.bin
(PID.TID 0000.0001)  MDS_READ_FIELD: opening global file: ../input/input_ocmip/seawifs_chl_p78.bin
(PID.TID 0000.0001)  MDS_READ_FIELD: opening global file: ../input/input_ocmip/seawifs_chl_p78.bin
(PID.TID 0000.0001)  MDS_READ_FIELD: opening global file: ../input/input_ocmip/seawifs_chl_p78.bin
(PID.TID 0000.0001)  MDS_READ_FIELD: opening global file: ../input/input_ocmip/seawifs_chl_p78.bin
(PID.TID 0000.0001)  MDS_READ_FIELD: opening global file: ../input/input_ocmip/seawifs_chl_p78.bin
(PID.TID 0000.0001)  MDS_READ_FIELD: opening global file: ../input/input_ocmip/seawifs_chl_p78.bin
(PID.TID 0000.0001)  MDS_READ_FIELD: opening global file: ../input/input_ocmip/seawifs_chl_p78.bin
(PID.TID 0000.0001)  MDS_READ_FIELD: opening global file: ../input/input_ocmip/seawifs_chl_p78.bin
(PID.TID 0000.0001)  MDS_READ_FIELD: opening global file: ../input/input_ocmip/seawifs_chl_p78.bin
(PID.TID 0000.0001)  MDS_READ_FIELD: opening global file: ../input/input_ocmip/seawifs_chl_p78.bin
(PID.TID 0000.0001)  MDS_READ_FIELD: opening global file: ../input/input_ocmip/seawifs_chl_p78.bin
(PID.TID 0000.0001)  MDS_READ_FIELD: opening global file: ../input/input_ocmip/seawifs_chl_p78.bin
(PID.TID 0000.0001)  MDS_READ_FIELD: opening global file: ../input/input_ocmip/seawifs_chl_p78.bin
(PID.TID 0000.0001)  MDS_READ_FIELD: opening global file: ../input/input_ocmip/seawifs_chl_p78.bin
(PID.TID 0000.0001)  MDS_READ_FIELD: opening global file: ../input/input_ocmip/seawifs_chl_p78.bin
(PID.TID 0000.0001)  MDS_READ_FIELD: opening global file: ../input/input_ocmip/seawifs_chl_p78.bin
(PID.TID 0000.0001)  MDS_READ_FIELD: opening global file: ../input/input_ocmip/seawifs_chl_p78.bin
(PID.TID 0000.0001)  MDS_READ_FIELD: opening global file: ../input/input_ocmip/seawifs_chl_p78.bin
(PID.TID 0000.0001)  MDS_READ_FIELD: opening global file: ../input/input_ocmip/seawifs_chl_p78.bin
(PID.TID 0000.0001)  MDS_READ_FIELD: opening global file: ../input/input_ocmip/seawifs_chl_p78.bin
(PID.TID 0000.0001)  MDS_READ_FIELD: opening global file: ../input/input_ocmip/seawifs_chl_p78.bin
(PID.TID 0000.0001)  MDS_READ_FIELD: opening global file: ../input/input_ocmip/seawifs_chl_p78.bin
(PID.TID 0000.0001)  MDS_READ_FIELD: opening global file: ../input/input_ocmip/seawifs_chl_p78.bin
(PID.TID 0000.0001)  MDS_READ_FIELD: opening global file: ../input/input_ocmip/seawifs_chl_p78.bin
(PID.TID 0000.0001)  MDS_READ_FIELD: opening global file: ../input/input_ocmip/seawifs_chl_p78.bin
(PID.TID 0000.0001)  MDS_READ_FIELD: opening global file: ../input/input_ocmip/seawifs_chl_p78.bin
(PID.TID 0000.0001)  MDS_READ_FIELD: opening global file: ../input/input_ocmip/seawifs_chl_p78.bin
(PID.TID 0000.0001)  MDS_READ_FIELD: opening global file: ../input/input_ocmip/seawifs_chl_p78.bin
(PID.TID 0000.0001)  MDS_READ_FIELD: opening global file: ../input/input_ocmip/seawifs_chl_p78.bin
(PID.TID 0000.0001)  MDS_READ_FIELD: opening global file: ../input/input_ocmip/seawifs_chl_p78.bin
(PID.TID 0000.0001)  MDS_READ_FIELD: opening global file: ../input/input_ocmip/seawifs_chl_p78.bin
(PID.TID 0000.0001)  MDS_READ_FIELD: opening global file: ../input/input_ocmip/seawifs_chl_p78.bin
(PID.TID 0000.0001)  MDS_READ_FIELD: opening global file: ../input/input_ocmip/seawifs_chl_p78.bin
(PID.TID 0000.0001)  MDS_READ_FIELD: opening global file: ../input/input_ocmip/seawifs_chl_p78.bin
(PID.TID 0000.0001)  MDS_READ_FIELD: opening global file: ../input/input_ocmip/seawifs_chl_p78.bin
(PID.TID 0000.0001)  MDS_READ_FIELD: opening global file: ../input/input_ocmip/seawifs_chl_p78.bin
(PID.TID 0000.0001)  MDS_READ_FIELD: opening global file: ../input/input_ocmip/seawifs_chl_p78.bin
(PID.TID 0000.0001)  MDS_READ_FIELD: opening global file: ../input/input_ocmip/seawifs_chl_p78.bin
(PID.TID 0000.0001)  MDS_READ_FIELD: opening global file: ../input/input_ocmip/seawifs_chl_p78.bin
(PID.TID 0000.0001)  MDS_READ_FIELD: opening global file: ../input/input_ocmip/seawifs_chl_p78.bin
(PID.TID 0000.0001)  MDS_READ_FIELD: opening global file: ../input/input_ocmip/seawifs_chl_p78.bin
(PID.TID 0000.0001)  MDS_READ_FIELD: opening global file: ../input/input_ocmip/seawifs_chl_p78.bin
(PID.TID 0000.0001)  MDS_READ_FIELD: opening global file: ../input/input_ocmip/seawifs_chl_p78.bin
(PID.TID 0000.0001)  MDS_READ_FIELD: opening global file: ../input/input_ocmip/seawifs_chl_p78.bin
(PID.TID 0000.0001)  MDS_READ_FIELD: opening global file: ../input/input_ocmip/seawifs_chl_p78.bin
(PID.TID 0000.0001)  MDS_READ_FIELD: opening global file: ../input/input_ocmip/seawifs_chl_p78.bin
(PID.TID 0000.0001)  MDS_READ_FIELD: opening global file: ../input/input_ocmip/seawifs_chl_p78.bin
(PID.TID 0000.0001)  MDS_READ_FIELD: opening global file: ../input/input_ocmip/seawifs_chl_p78.bin
(PID.TID 0000.0001)  MDS_READ_FIELD: opening global file: ../input/input_ocmip/seawifs_chl_p78.bin
(PID.TID 0000.0001)  MDS_READ_FIELD: opening global file: ../input/input_ocmip/seawifs_chl_p78.bin
(PID.TID 0000.0001)  MDS_READ_FIELD: opening global file: ../input/input_ocmip/seawifs_chl_p78.bin
(PID.TID 0000.0001)  MDS_READ_FIELD: opening global file: ../input/input_ocmip/seawifs_chl_p78.bin
(PID.TID 0000.0001)  MDS_READ_FIELD: opening global file: ../input/input_ocmip/seawifs_chl_p78.bin
(PID.TID 0000.0001)  MDS_READ_FIELD: opening global file: ../input/input_ocmip/seawifs_chl_p78.bin
(PID.TID 0000.0001)  MDS_READ_FIELD: opening global file: ../input/input_ocmip/seawifs_chl_p78.bin
(PID.TID 0000.0001)  MDS_READ_FIELD: opening global file: ../input/input_ocmip/seawifs_chl_p78.bin
(PID.TID 0000.0001)  MDS_READ_FIELD: opening global file: ../input/input_ocmip/seawifs_chl_p78.bin
(PID.TID 0000.0001)  MDS_READ_FIELD: opening global file: ../input/input_ocmip/seawifs_chl_p78.bin
(PID.TID 0000.0001)  MDS_READ_FIELD: opening global file: ../input/input_ocmip/seawifs_chl_p78.bin
(PID.TID 0000.0001)  MDS_READ_FIELD: opening global file: ../input/input_ocmip/seawifs_chl_p78.bin
(PID.TID 0000.0001)  MDS_READ_FIELD: opening global file: ../input/input_ocmip/seawifs_chl_p78.bin
(PID.TID 0000.0001)  MDS_READ_FIELD: opening global file: ../input/input_ocmip/seawifs_chl_p78.bin
(PID.TID 0000.0001)  MDS_READ_FIELD: opening global file: ../input/input_ocmip/seawifs_chl_p78.bin
(PID.TID 0000.0001)  MDS_READ_FIELD: opening global file: ../input/input_ocmip/seawifs_chl_p78.bin
(PID.TID 0000.0001)  MDS_READ_FIELD: opening global file: ../input/input_ocmip/seawifs_chl_p78.bin
(PID.TID 0000.0001)  MDS_READ_FIELD: opening global file: ../input/input_ocmip/seawifs_chl_p78.bin
(PID.TID 0000.0001)  MDS_READ_FIELD: opening global file: ../input/input_ocmip/seawifs_chl_p78.bin
(PID.TID 0000.0001)  MDS_READ_FIELD: opening global file: ../input/input_ocmip/seawifs_chl_p78.bin
(PID.TID 0000.0001)  MDS_READ_FIELD: opening global file: ../input/input_ocmip/seawifs_chl_p78.bin
(PID.TID 0000.0001)  MDS_READ_FIELD: opening global file: ../input/input_ocmip/seawifs_zoo_p2.bin
(PID.TID 0000.0001)  MDS_READ_FIELD: opening global file: ../input/input_ocmip/seawifs_zoo_p2.bin
(PID.TID 0000.0001) // =======================================================
(PID.TID 0000.0001) // Model current state
(PID.TID 0000.0001) // =======================================================
(PID.TID 0000.0001) 
(PID.TID 0000.0001) // =======================================================
(PID.TID 0000.0001) // Begin MONITOR dynamic field statistics
(PID.TID 0000.0001) // =======================================================
(PID.TID 0000.0001) %MON time_tsnumber                =               5644800
(PID.TID 0000.0001) %MON time_secondsf                =   2.4385536000000000E+11
(PID.TID 0000.0001) %MON dynstat_eta_max              =   9.3755788342258450E-01
(PID.TID 0000.0001) %MON dynstat_eta_min              =  -1.7306042755481776E+00
(PID.TID 0000.0001) %MON dynstat_eta_mean             =   1.6246257108922902E-10
(PID.TID 0000.0001) %MON dynstat_eta_sd               =   6.5178731078585439E-01
(PID.TID 0000.0001) %MON dynstat_eta_del2             =   9.2891361698735429E-04
(PID.TID 0000.0001) %MON dynstat_uvel_max             =   1.5507010426340442E-01
(PID.TID 0000.0001) %MON dynstat_uvel_min             =  -1.8450839420854095E-01
(PID.TID 0000.0001) %MON dynstat_uvel_mean            =   2.9502714531933726E-03
(PID.TID 0000.0001) %MON dynstat_uvel_sd              =   1.3889038797601260E-02
(PID.TID 0000.0001) %MON dynstat_uvel_del2            =   3.8112943275887823E-05
(PID.TID 0000.0001) %MON dynstat_vvel_max             =   1.1197724506262370E-01
(PID.TID 0000.0001) %MON dynstat_vvel_min             =  -1.5223637120169622E-01
(PID.TID 0000.0001) %MON dynstat_vvel_mean            =  -1.9308448637590122E-04
(PID.TID 0000.0001) %MON dynstat_vvel_sd              =   6.3587600692689072E-03
(PID.TID 0000.0001) %MON dynstat_vvel_del2            =   2.6616594379894838E-05
(PID.TID 0000.0001) %MON dynstat_wvel_max             =   4.3080633446447992E-05
(PID.TID 0000.0001) %MON dynstat_wvel_min             =  -6.4970200391657162E-05
(PID.TID 0000.0001) %MON dynstat_wvel_mean            =  -3.6601022929591253E-22
(PID.TID 0000.0001) %MON dynstat_wvel_sd              =   1.9051103185233318E-06
(PID.TID 0000.0001) %MON dynstat_wvel_del2            =   1.3074537000181549E-08
(PID.TID 0000.0001) %MON dynstat_theta_max            =   2.9951462807691811E+01
(PID.TID 0000.0001) %MON dynstat_theta_min            =  -2.1378475686010163E+00
(PID.TID 0000.0001) %MON dynstat_theta_mean           =   3.7550907107470177E+00
(PID.TID 0000.0001) %MON dynstat_theta_sd             =   5.1497435058859971E+00
(PID.TID 0000.0001) %MON dynstat_theta_del2           =   2.2484814302737386E-03
(PID.TID 0000.0001) %MON dynstat_salt_max             =   3.7554077754206418E+01
(PID.TID 0000.0001) %MON dynstat_salt_min             =   3.1355930984643138E+01
(PID.TID 0000.0001) %MON dynstat_salt_mean            =   3.4543282271396990E+01
(PID.TID 0000.0001) %MON dynstat_salt_sd              =   3.5868549207265438E-01
(PID.TID 0000.0001) %MON dynstat_salt_del2            =   3.8184709121527621E-04
(PID.TID 0000.0001) %MON forcing_qnet_max             =   4.4937911987304688E+02
(PID.TID 0000.0001) %MON forcing_qnet_min             =  -2.0417861938476563E+02
(PID.TID 0000.0001) %MON forcing_qnet_mean            =  -1.7476785758605494E+01
(PID.TID 0000.0001) %MON forcing_qnet_sd              =   1.1366008303785441E+02
(PID.TID 0000.0001) %MON forcing_qnet_del2            =   2.8634827682350800E-01
(PID.TID 0000.0001) %MON forcing_qsw_max              =   0.0000000000000000E+00
(PID.TID 0000.0001) %MON forcing_qsw_min              =   0.0000000000000000E+00
(PID.TID 0000.0001) %MON forcing_qsw_mean             =   0.0000000000000000E+00
(PID.TID 0000.0001) %MON forcing_qsw_sd               =   0.0000000000000000E+00
(PID.TID 0000.0001) %MON forcing_qsw_del2             =   0.0000000000000000E+00
(PID.TID 0000.0001) %MON forcing_empmr_max            =   6.9206222512718796E-05
(PID.TID 0000.0001) %MON forcing_empmr_min            =  -1.5544422772961752E-04
(PID.TID 0000.0001) %MON forcing_empmr_mean           =   1.2460352661810301E-14
(PID.TID 0000.0001) %MON forcing_empmr_sd             =   2.4700019777611149E-05
(PID.TID 0000.0001) %MON forcing_empmr_del2           =   1.1591736879228609E-07
(PID.TID 0000.0001) %MON forcing_fu_max               =   2.8468748927116394E-01
(PID.TID 0000.0001) %MON forcing_fu_min               =  -1.5522694587707520E-01
(PID.TID 0000.0001) %MON forcing_fu_mean              =   1.7556170217892433E-02
(PID.TID 0000.0001) %MON forcing_fu_sd                =   9.0000334104050450E-02
(PID.TID 0000.0001) %MON forcing_fu_del2              =   2.6696712158131967E-04
(PID.TID 0000.0001) %MON forcing_fv_max               =   2.1343359351158142E-01
(PID.TID 0000.0001) %MON forcing_fv_min               =  -1.7404061555862427E-01
(PID.TID 0000.0001) %MON forcing_fv_mean              =  -5.8961451090369437E-03
(PID.TID 0000.0001) %MON forcing_fv_sd                =   4.6452039259649462E-02
(PID.TID 0000.0001) %MON forcing_fv_del2              =   1.8991860252816603E-04
(PID.TID 0000.0001) %MON advcfl_uvel_max              =   4.0045216386264210E-02
(PID.TID 0000.0001) %MON advcfl_vvel_max              =   2.1032594024274730E-02
(PID.TID 0000.0001) %MON advcfl_wvel_max              =   1.3150163344719480E-02
(PID.TID 0000.0001) %MON advcfl_W_hf_max              =   1.5498406799133672E-02
(PID.TID 0000.0001) %MON pe_b_mean                    =   5.8641869340709358E-04
(PID.TID 0000.0001) %MON ke_max                       =   1.7893934739356746E-02
(PID.TID 0000.0001) %MON ke_mean                      =   1.1152732963384502E-04
(PID.TID 0000.0001) %MON ke_vol                       =   1.1739855207380157E+18
(PID.TID 0000.0001) %MON vort_r_min                   =  -5.5333382194170067E-07
(PID.TID 0000.0001) %MON vort_r_max                   =   6.2092681877331846E-07
(PID.TID 0000.0001) %MON vort_a_mean                  =  -2.5798915502264678E-05
(PID.TID 0000.0001) %MON vort_a_sd                    =   7.3558772795087853E-05
(PID.TID 0000.0001) %MON vort_p_mean                  =  -3.0020960747216345E-05
(PID.TID 0000.0001) %MON vort_p_sd                    =   9.8090578536761918E-05
(PID.TID 0000.0001) %MON surfExpan_theta_mean         =  -3.2318359898147782E-07
(PID.TID 0000.0001) %MON surfExpan_salt_mean          =   2.1976907188860100E-08
(PID.TID 0000.0001) // =======================================================
(PID.TID 0000.0001) // End MONITOR dynamic field statistics
(PID.TID 0000.0001) // =======================================================
(PID.TID 0000.0001) // =======================================================
(PID.TID 0000.0001) // Begin MONITOR ptracer field statistics
(PID.TID 0000.0001) // =======================================================
(PID.TID 0000.0001) %MON trcstat_ptracer01_max        =   2.0000000000000000E+03
(PID.TID 0000.0001) %MON trcstat_ptracer01_min        =   2.0000000000000000E+03
(PID.TID 0000.0001) %MON trcstat_ptracer01_mean       =   2.0000000000000348E+03
(PID.TID 0000.0001) %MON trcstat_ptracer01_sd         =   3.4788172342815365E-11
(PID.TID 0000.0001) %MON trcstat_ptracer01_del2       =   0.0000000000000000E+00
(PID.TID 0000.0001) %MON trcstat_ptracer02_max        =   7.7443426847457886E-01
(PID.TID 0000.0001) %MON trcstat_ptracer02_min        =   7.7357771033348399E-07
(PID.TID 0000.0001) %MON trcstat_ptracer02_mean       =   1.0102510745994015E-02
(PID.TID 0000.0001) %MON trcstat_ptracer02_sd         =   3.1851925620534134E-02
(PID.TID 0000.0001) %MON trcstat_ptracer02_del2       =   4.6204609583606527E-05
(PID.TID 0000.0001) %MON trcstat_ptracer03_max        =   2.1305871009826660E+00
(PID.TID 0000.0001) %MON trcstat_ptracer03_min        =   2.3391621652990580E-06
(PID.TID 0000.0001) %MON trcstat_ptracer03_mean       =   2.6446451498324312E-02
(PID.TID 0000.0001) %MON trcstat_ptracer03_sd         =   7.9563742610568089E-02
(PID.TID 0000.0001) %MON trcstat_ptracer03_del2       =   1.0485369840004214E-04
(PID.TID 0000.0001) %MON trcstat_ptracer04_max        =   5.5516395568847656E+01
(PID.TID 0000.0001) %MON trcstat_ptracer04_min        =   2.7343749025021680E-05
(PID.TID 0000.0001) %MON trcstat_ptracer04_mean       =   3.0319124172610458E+01
(PID.TID 0000.0001) %MON trcstat_ptracer04_sd         =   9.3093495048918609E+00
(PID.TID 0000.0001) %MON trcstat_ptracer04_del2       =   7.0414134335694068E-03
(PID.TID 0000.0001) %MON trcstat_ptracer05_max        =   3.4906260967254639E+00
(PID.TID 0000.0001) %MON trcstat_ptracer05_min        =   4.7107778489589691E-02
(PID.TID 0000.0001) %MON trcstat_ptracer05_mean       =   2.1106181285445795E+00
(PID.TID 0000.0001) %MON trcstat_ptracer05_sd         =   6.4916060620548233E-01
(PID.TID 0000.0001) %MON trcstat_ptracer05_del2       =   3.6658808103996363E-04
(PID.TID 0000.0001) %MON trcstat_ptracer06_max        =   1.8846359252929688E+02
(PID.TID 0000.0001) %MON trcstat_ptracer06_min        =   4.3886455893516541E-01
(PID.TID 0000.0001) %MON trcstat_ptracer06_mean       =   8.3739431197758023E+01
(PID.TID 0000.0001) %MON trcstat_ptracer06_sd         =   4.9673060416466988E+01
(PID.TID 0000.0001) %MON trcstat_ptracer06_del2       =   1.6543685326870849E-02
(PID.TID 0000.0001) %MON trcstat_ptracer07_max        =   6.0156327672302723E-03
(PID.TID 0000.0001) %MON trcstat_ptracer07_min        =   4.2254514482920058E-06
(PID.TID 0000.0001) %MON trcstat_ptracer07_mean       =   3.3385286198007915E-04
(PID.TID 0000.0001) %MON trcstat_ptracer07_sd         =   2.5058901193196362E-04
(PID.TID 0000.0001) %MON trcstat_ptracer07_del2       =   2.9408062113934520E-07
(PID.TID 0000.0001) %MON trcstat_ptracer08_max        =   0.0000000000000000E+00
(PID.TID 0000.0001) %MON trcstat_ptracer08_min        =   0.0000000000000000E+00
(PID.TID 0000.0001) %MON trcstat_ptracer08_mean       =   0.0000000000000000E+00
(PID.TID 0000.0001) %MON trcstat_ptracer08_sd         =   0.0000000000000000E+00
(PID.TID 0000.0001) %MON trcstat_ptracer08_del2       =   0.0000000000000000E+00
(PID.TID 0000.0001) %MON trcstat_ptracer09_max        =   2.0502829551696777E+00
(PID.TID 0000.0001) %MON trcstat_ptracer09_min        =  -2.7425934094935656E-03
(PID.TID 0000.0001) %MON trcstat_ptracer09_mean       =   1.7120763280424445E-02
(PID.TID 0000.0001) %MON trcstat_ptracer09_sd         =   1.0931028391102209E-01
(PID.TID 0000.0001) %MON trcstat_ptracer09_del2       =   2.9710721251954543E-04
(PID.TID 0000.0001) %MON trcstat_ptracer10_max        =   1.2814268469810486E-01
(PID.TID 0000.0001) %MON trcstat_ptracer10_min        =  -1.7141208809334785E-04
(PID.TID 0000.0001) %MON trcstat_ptracer10_mean       =   1.0700477050265278E-03
(PID.TID 0000.0001) %MON trcstat_ptracer10_sd         =   6.8318927444388803E-03
(PID.TID 0000.0001) %MON trcstat_ptracer10_del2       =   1.8569200782471590E-05
(PID.TID 0000.0001) %MON trcstat_ptracer11_max        =   6.8241039116401225E-05
(PID.TID 0000.0001) %MON trcstat_ptracer11_min        =  -1.4861747388295043E-07
(PID.TID 0000.0001) %MON trcstat_ptracer11_mean       =   2.8553608963584911E-07
(PID.TID 0000.0001) %MON trcstat_ptracer11_sd         =   2.0377054782970131E-06
(PID.TID 0000.0001) %MON trcstat_ptracer11_del2       =   7.3259219136987665E-09
(PID.TID 0000.0001) %MON trcstat_ptracer12_max        =   0.0000000000000000E+00
(PID.TID 0000.0001) %MON trcstat_ptracer12_min        =   0.0000000000000000E+00
(PID.TID 0000.0001) %MON trcstat_ptracer12_mean       =   0.0000000000000000E+00
(PID.TID 0000.0001) %MON trcstat_ptracer12_sd         =   0.0000000000000000E+00
(PID.TID 0000.0001) %MON trcstat_ptracer12_del2       =   0.0000000000000000E+00
(PID.TID 0000.0001) %MON trcstat_ptracer13_max        =   2.9385373592376709E+00
(PID.TID 0000.0001) %MON trcstat_ptracer13_min        =   1.3349983873922611E-06
(PID.TID 0000.0001) %MON trcstat_ptracer13_mean       =   2.7103413061706789E-02
(PID.TID 0000.0001) %MON trcstat_ptracer13_sd         =   5.8930574755224757E-02
(PID.TID 0000.0001) %MON trcstat_ptracer13_del2       =   2.6156193638092999E-04
(PID.TID 0000.0001) %MON trcstat_ptracer14_max        =   1.8365858495235443E-01
(PID.TID 0000.0001) %MON trcstat_ptracer14_min        =   8.3437399212016317E-08
(PID.TID 0000.0001) %MON trcstat_ptracer14_mean       =   1.6939633163566743E-03
(PID.TID 0000.0001) %MON trcstat_ptracer14_sd         =   3.6831609222015473E-03
(PID.TID 0000.0001) %MON trcstat_ptracer14_del2       =   1.6347621023808124E-05
(PID.TID 0000.0001) %MON trcstat_ptracer15_max        =   4.0247123718261719E+01
(PID.TID 0000.0001) %MON trcstat_ptracer15_min        =  -1.3386267423629761E-01
(PID.TID 0000.0001) %MON trcstat_ptracer15_mean       =   1.5159485877440104E-01
(PID.TID 0000.0001) %MON trcstat_ptracer15_sd         =   4.1019145304019100E-01
(PID.TID 0000.0001) %MON trcstat_ptracer15_del2       =   2.1470211634402230E-03
(PID.TID 0000.0001) %MON trcstat_ptracer16_max        =   1.9047880778089166E-04
(PID.TID 0000.0001) %MON trcstat_ptracer16_min        =   1.3391438132004385E-11
(PID.TID 0000.0001) %MON trcstat_ptracer16_mean       =   7.4623307893104747E-07
(PID.TID 0000.0001) %MON trcstat_ptracer16_sd         =   2.4038234079072926E-06
(PID.TID 0000.0001) %MON trcstat_ptracer16_del2       =   1.2179256723758740E-08
(PID.TID 0000.0001) %MON trcstat_ptracer17_max        =   0.0000000000000000E+00
(PID.TID 0000.0001) %MON trcstat_ptracer17_min        =   0.0000000000000000E+00
(PID.TID 0000.0001) %MON trcstat_ptracer17_mean       =   0.0000000000000000E+00
(PID.TID 0000.0001) %MON trcstat_ptracer17_sd         =   0.0000000000000000E+00
(PID.TID 0000.0001) %MON trcstat_ptracer17_del2       =   0.0000000000000000E+00
(PID.TID 0000.0001) %MON trcstat_ptracer18_max        =   7.1691323071718216E-01
(PID.TID 0000.0001) %MON trcstat_ptracer18_min        =   1.3917120580964060E-09
(PID.TID 0000.0001) %MON trcstat_ptracer18_mean       =   4.9194465606287191E-04
(PID.TID 0000.0001) %MON trcstat_ptracer18_sd         =   5.1451619238174727E-03
(PID.TID 0000.0001) %MON trcstat_ptracer18_del2       =   7.8193297181643906E-05
(PID.TID 0000.0001) %MON trcstat_ptracer19_max        =   7.1691323071718216E-01
(PID.TID 0000.0001) %MON trcstat_ptracer19_min        =   1.3917120580964060E-09
(PID.TID 0000.0001) %MON trcstat_ptracer19_mean       =   4.9194465606287191E-04
(PID.TID 0000.0001) %MON trcstat_ptracer19_sd         =   5.1451619238174727E-03
(PID.TID 0000.0001) %MON trcstat_ptracer19_del2       =   7.8193297181643906E-05
(PID.TID 0000.0001) %MON trcstat_ptracer20_max        =   7.1691323071718216E-01
(PID.TID 0000.0001) %MON trcstat_ptracer20_min        =   1.3917120580964060E-09
(PID.TID 0000.0001) %MON trcstat_ptracer20_mean       =   4.9194465606287191E-04
(PID.TID 0000.0001) %MON trcstat_ptracer20_sd         =   5.1451619238174727E-03
(PID.TID 0000.0001) %MON trcstat_ptracer20_del2       =   7.8193297181643906E-05
(PID.TID 0000.0001) %MON trcstat_ptracer21_max        =   7.1691323071718216E-01
(PID.TID 0000.0001) %MON trcstat_ptracer21_min        =   1.3917120580964060E-09
(PID.TID 0000.0001) %MON trcstat_ptracer21_mean       =   4.9194465606287191E-04
(PID.TID 0000.0001) %MON trcstat_ptracer21_sd         =   5.1451619238174727E-03
(PID.TID 0000.0001) %MON trcstat_ptracer21_del2       =   7.8193297181643906E-05
(PID.TID 0000.0001) %MON trcstat_ptracer22_max        =   7.1691323071718216E-01
(PID.TID 0000.0001) %MON trcstat_ptracer22_min        =   1.3917120580964060E-09
(PID.TID 0000.0001) %MON trcstat_ptracer22_mean       =   4.9194465606287191E-04
(PID.TID 0000.0001) %MON trcstat_ptracer22_sd         =   5.1451619238174727E-03
(PID.TID 0000.0001) %MON trcstat_ptracer22_del2       =   7.8193297181643906E-05
(PID.TID 0000.0001) %MON trcstat_ptracer23_max        =   7.1691323071718216E-01
(PID.TID 0000.0001) %MON trcstat_ptracer23_min        =   1.3917120580964060E-09
(PID.TID 0000.0001) %MON trcstat_ptracer23_mean       =   4.9194465606287191E-04
(PID.TID 0000.0001) %MON trcstat_ptracer23_sd         =   5.1451619238174727E-03
(PID.TID 0000.0001) %MON trcstat_ptracer23_del2       =   7.8193297181643906E-05
(PID.TID 0000.0001) %MON trcstat_ptracer24_max        =   7.1691323071718216E-01
(PID.TID 0000.0001) %MON trcstat_ptracer24_min        =   1.3917120580964060E-09
(PID.TID 0000.0001) %MON trcstat_ptracer24_mean       =   4.9194465606287191E-04
(PID.TID 0000.0001) %MON trcstat_ptracer24_sd         =   5.1451619238174727E-03
(PID.TID 0000.0001) %MON trcstat_ptracer24_del2       =   7.8193297181643906E-05
(PID.TID 0000.0001) %MON trcstat_ptracer25_max        =   7.1691323071718216E-01
(PID.TID 0000.0001) %MON trcstat_ptracer25_min        =   1.3917120580964060E-09
(PID.TID 0000.0001) %MON trcstat_ptracer25_mean       =   4.9194465606287191E-04
(PID.TID 0000.0001) %MON trcstat_ptracer25_sd         =   5.1451619238174727E-03
(PID.TID 0000.0001) %MON trcstat_ptracer25_del2       =   7.8193297181643906E-05
(PID.TID 0000.0001) %MON trcstat_ptracer26_max        =   7.1691323071718216E-01
(PID.TID 0000.0001) %MON trcstat_ptracer26_min        =   1.3917120580964060E-09
(PID.TID 0000.0001) %MON trcstat_ptracer26_mean       =   4.9194465606287191E-04
(PID.TID 0000.0001) %MON trcstat_ptracer26_sd         =   5.1451619238174727E-03
(PID.TID 0000.0001) %MON trcstat_ptracer26_del2       =   7.8193297181643906E-05
(PID.TID 0000.0001) %MON trcstat_ptracer27_max        =   7.1691323071718216E-01
(PID.TID 0000.0001) %MON trcstat_ptracer27_min        =   1.3917120580964060E-09
(PID.TID 0000.0001) %MON trcstat_ptracer27_mean       =   4.9194465606287191E-04
(PID.TID 0000.0001) %MON trcstat_ptracer27_sd         =   5.1451619238174727E-03
(PID.TID 0000.0001) %MON trcstat_ptracer27_del2       =   7.8193297181643906E-05
(PID.TID 0000.0001) %MON trcstat_ptracer28_max        =   7.1691323071718216E-01
(PID.TID 0000.0001) %MON trcstat_ptracer28_min        =   1.3917120580964060E-09
(PID.TID 0000.0001) %MON trcstat_ptracer28_mean       =   4.9194465606287191E-04
(PID.TID 0000.0001) %MON trcstat_ptracer28_sd         =   5.1451619238174727E-03
(PID.TID 0000.0001) %MON trcstat_ptracer28_del2       =   7.8193297181643906E-05
(PID.TID 0000.0001) %MON trcstat_ptracer29_max        =   7.1691323071718216E-01
(PID.TID 0000.0001) %MON trcstat_ptracer29_min        =   1.3917120580964060E-09
(PID.TID 0000.0001) %MON trcstat_ptracer29_mean       =   4.9194465606287191E-04
(PID.TID 0000.0001) %MON trcstat_ptracer29_sd         =   5.1451619238174727E-03
(PID.TID 0000.0001) %MON trcstat_ptracer29_del2       =   7.8193297181643906E-05
(PID.TID 0000.0001) %MON trcstat_ptracer30_max        =   7.1691323071718216E-01
(PID.TID 0000.0001) %MON trcstat_ptracer30_min        =   1.3917120580964060E-09
(PID.TID 0000.0001) %MON trcstat_ptracer30_mean       =   4.9194465606287191E-04
(PID.TID 0000.0001) %MON trcstat_ptracer30_sd         =   5.1451619238174727E-03
(PID.TID 0000.0001) %MON trcstat_ptracer30_del2       =   7.8193297181643906E-05
(PID.TID 0000.0001) %MON trcstat_ptracer31_max        =   7.1691323071718216E-01
(PID.TID 0000.0001) %MON trcstat_ptracer31_min        =   1.3917120580964060E-09
(PID.TID 0000.0001) %MON trcstat_ptracer31_mean       =   4.9194465606287191E-04
(PID.TID 0000.0001) %MON trcstat_ptracer31_sd         =   5.1451619238174727E-03
(PID.TID 0000.0001) %MON trcstat_ptracer31_del2       =   7.8193297181643906E-05
(PID.TID 0000.0001) %MON trcstat_ptracer32_max        =   7.1691323071718216E-01
(PID.TID 0000.0001) %MON trcstat_ptracer32_min        =   1.3917120580964060E-09
(PID.TID 0000.0001) %MON trcstat_ptracer32_mean       =   4.9194465606287191E-04
(PID.TID 0000.0001) %MON trcstat_ptracer32_sd         =   5.1451619238174727E-03
(PID.TID 0000.0001) %MON trcstat_ptracer32_del2       =   7.8193297181643906E-05
(PID.TID 0000.0001) %MON trcstat_ptracer33_max        =   7.1691323071718216E-01
(PID.TID 0000.0001) %MON trcstat_ptracer33_min        =   1.3917120580964060E-09
(PID.TID 0000.0001) %MON trcstat_ptracer33_mean       =   4.9194465606287191E-04
(PID.TID 0000.0001) %MON trcstat_ptracer33_sd         =   5.1451619238174727E-03
(PID.TID 0000.0001) %MON trcstat_ptracer33_del2       =   7.8193297181643906E-05
(PID.TID 0000.0001) %MON trcstat_ptracer34_max        =   7.1691323071718216E-01
(PID.TID 0000.0001) %MON trcstat_ptracer34_min        =   1.3917120580964060E-09
(PID.TID 0000.0001) %MON trcstat_ptracer34_mean       =   4.9194465606287191E-04
(PID.TID 0000.0001) %MON trcstat_ptracer34_sd         =   5.1451619238174727E-03
(PID.TID 0000.0001) %MON trcstat_ptracer34_del2       =   7.8193297181643906E-05
(PID.TID 0000.0001) %MON trcstat_ptracer35_max        =   7.1691323071718216E-01
(PID.TID 0000.0001) %MON trcstat_ptracer35_min        =   1.3917120580964060E-09
(PID.TID 0000.0001) %MON trcstat_ptracer35_mean       =   4.9194465606287191E-04
(PID.TID 0000.0001) %MON trcstat_ptracer35_sd         =   5.1451619238174727E-03
(PID.TID 0000.0001) %MON trcstat_ptracer35_del2       =   7.8193297181643906E-05
(PID.TID 0000.0001) %MON trcstat_ptracer36_max        =   7.1691323071718216E-01
(PID.TID 0000.0001) %MON trcstat_ptracer36_min        =   1.3917120580964060E-09
(PID.TID 0000.0001) %MON trcstat_ptracer36_mean       =   4.9194465606287191E-04
(PID.TID 0000.0001) %MON trcstat_ptracer36_sd         =   5.1451619238174727E-03
(PID.TID 0000.0001) %MON trcstat_ptracer36_del2       =   7.8193297181643906E-05
(PID.TID 0000.0001) %MON trcstat_ptracer37_max        =   7.1691323071718216E-01
(PID.TID 0000.0001) %MON trcstat_ptracer37_min        =   1.3917120580964060E-09
(PID.TID 0000.0001) %MON trcstat_ptracer37_mean       =   4.9194465606287191E-04
(PID.TID 0000.0001) %MON trcstat_ptracer37_sd         =   5.1451619238174727E-03
(PID.TID 0000.0001) %MON trcstat_ptracer37_del2       =   7.8193297181643906E-05
(PID.TID 0000.0001) %MON trcstat_ptracer38_max        =   7.1691323071718216E-01
(PID.TID 0000.0001) %MON trcstat_ptracer38_min        =   1.3917120580964060E-09
(PID.TID 0000.0001) %MON trcstat_ptracer38_mean       =   4.9194465606287191E-04
(PID.TID 0000.0001) %MON trcstat_ptracer38_sd         =   5.1451619238174727E-03
(PID.TID 0000.0001) %MON trcstat_ptracer38_del2       =   7.8193297181643906E-05
(PID.TID 0000.0001) %MON trcstat_ptracer39_max        =   7.1691323071718216E-01
(PID.TID 0000.0001) %MON trcstat_ptracer39_min        =   1.3917120580964060E-09
(PID.TID 0000.0001) %MON trcstat_ptracer39_mean       =   4.9194465606287191E-04
(PID.TID 0000.0001) %MON trcstat_ptracer39_sd         =   5.1451619238174727E-03
(PID.TID 0000.0001) %MON trcstat_ptracer39_del2       =   7.8193297181643906E-05
(PID.TID 0000.0001) %MON trcstat_ptracer40_max        =   7.1691323071718216E-01
(PID.TID 0000.0001) %MON trcstat_ptracer40_min        =   1.3917120580964060E-09
(PID.TID 0000.0001) %MON trcstat_ptracer40_mean       =   4.9194465606287191E-04
(PID.TID 0000.0001) %MON trcstat_ptracer40_sd         =   5.1451619238174727E-03
(PID.TID 0000.0001) %MON trcstat_ptracer40_del2       =   7.8193297181643906E-05
(PID.TID 0000.0001) %MON trcstat_ptracer41_max        =   7.1691323071718216E-01
(PID.TID 0000.0001) %MON trcstat_ptracer41_min        =   1.3917120580964060E-09
(PID.TID 0000.0001) %MON trcstat_ptracer41_mean       =   4.9194465606287191E-04
(PID.TID 0000.0001) %MON trcstat_ptracer41_sd         =   5.1451619238174727E-03
(PID.TID 0000.0001) %MON trcstat_ptracer41_del2       =   7.8193297181643906E-05
(PID.TID 0000.0001) %MON trcstat_ptracer42_max        =   7.1691323071718216E-01
(PID.TID 0000.0001) %MON trcstat_ptracer42_min        =   1.3917120580964060E-09
(PID.TID 0000.0001) %MON trcstat_ptracer42_mean       =   4.9194465606287191E-04
(PID.TID 0000.0001) %MON trcstat_ptracer42_sd         =   5.1451619238174727E-03
(PID.TID 0000.0001) %MON trcstat_ptracer42_del2       =   7.8193297181643906E-05
(PID.TID 0000.0001) %MON trcstat_ptracer43_max        =   7.1691323071718216E-01
(PID.TID 0000.0001) %MON trcstat_ptracer43_min        =   1.3917120580964060E-09
(PID.TID 0000.0001) %MON trcstat_ptracer43_mean       =   4.9194465606287191E-04
(PID.TID 0000.0001) %MON trcstat_ptracer43_sd         =   5.1451619238174727E-03
(PID.TID 0000.0001) %MON trcstat_ptracer43_del2       =   7.8193297181643906E-05
(PID.TID 0000.0001) %MON trcstat_ptracer44_max        =   7.1691323071718216E-01
(PID.TID 0000.0001) %MON trcstat_ptracer44_min        =   1.3917120580964060E-09
(PID.TID 0000.0001) %MON trcstat_ptracer44_mean       =   4.9194465606287191E-04
(PID.TID 0000.0001) %MON trcstat_ptracer44_sd         =   5.1451619238174727E-03
(PID.TID 0000.0001) %MON trcstat_ptracer44_del2       =   7.8193297181643906E-05
(PID.TID 0000.0001) %MON trcstat_ptracer45_max        =   7.1691323071718216E-01
(PID.TID 0000.0001) %MON trcstat_ptracer45_min        =   1.3917120580964060E-09
(PID.TID 0000.0001) %MON trcstat_ptracer45_mean       =   4.9194465606287191E-04
(PID.TID 0000.0001) %MON trcstat_ptracer45_sd         =   5.1451619238174727E-03
(PID.TID 0000.0001) %MON trcstat_ptracer45_del2       =   7.8193297181643906E-05
(PID.TID 0000.0001) %MON trcstat_ptracer46_max        =   7.1691323071718216E-01
(PID.TID 0000.0001) %MON trcstat_ptracer46_min        =   1.3917120580964060E-09
(PID.TID 0000.0001) %MON trcstat_ptracer46_mean       =   4.9194465606287191E-04
(PID.TID 0000.0001) %MON trcstat_ptracer46_sd         =   5.1451619238174727E-03
(PID.TID 0000.0001) %MON trcstat_ptracer46_del2       =   7.8193297181643906E-05
(PID.TID 0000.0001) %MON trcstat_ptracer47_max        =   7.1691323071718216E-01
(PID.TID 0000.0001) %MON trcstat_ptracer47_min        =   1.3917120580964060E-09
(PID.TID 0000.0001) %MON trcstat_ptracer47_mean       =   4.9194465606287191E-04
(PID.TID 0000.0001) %MON trcstat_ptracer47_sd         =   5.1451619238174727E-03
(PID.TID 0000.0001) %MON trcstat_ptracer47_del2       =   7.8193297181643906E-05
(PID.TID 0000.0001) %MON trcstat_ptracer48_max        =   7.1691323071718216E-01
(PID.TID 0000.0001) %MON trcstat_ptracer48_min        =   1.3917120580964060E-09
(PID.TID 0000.0001) %MON trcstat_ptracer48_mean       =   4.9194465606287191E-04
(PID.TID 0000.0001) %MON trcstat_ptracer48_sd         =   5.1451619238174727E-03
(PID.TID 0000.0001) %MON trcstat_ptracer48_del2       =   7.8193297181643906E-05
(PID.TID 0000.0001) %MON trcstat_ptracer49_max        =   7.1691323071718216E-01
(PID.TID 0000.0001) %MON trcstat_ptracer49_min        =   1.3917120580964060E-09
(PID.TID 0000.0001) %MON trcstat_ptracer49_mean       =   4.9194465606287191E-04
(PID.TID 0000.0001) %MON trcstat_ptracer49_sd         =   5.1451619238174727E-03
(PID.TID 0000.0001) %MON trcstat_ptracer49_del2       =   7.8193297181643906E-05
(PID.TID 0000.0001) %MON trcstat_ptracer50_max        =   7.1691323071718216E-01
(PID.TID 0000.0001) %MON trcstat_ptracer50_min        =   1.3917120580964060E-09
(PID.TID 0000.0001) %MON trcstat_ptracer50_mean       =   4.9194465606287191E-04
(PID.TID 0000.0001) %MON trcstat_ptracer50_sd         =   5.1451619238174727E-03
(PID.TID 0000.0001) %MON trcstat_ptracer50_del2       =   7.8193297181643906E-05
(PID.TID 0000.0001) %MON trcstat_ptracer51_max        =   7.1691323071718216E-01
(PID.TID 0000.0001) %MON trcstat_ptracer51_min        =   1.3917120580964060E-09
(PID.TID 0000.0001) %MON trcstat_ptracer51_mean       =   4.9194465606287191E-04
(PID.TID 0000.0001) %MON trcstat_ptracer51_sd         =   5.1451619238174727E-03
(PID.TID 0000.0001) %MON trcstat_ptracer51_del2       =   7.8193297181643906E-05
(PID.TID 0000.0001) %MON trcstat_ptracer52_max        =   7.1691323071718216E-01
(PID.TID 0000.0001) %MON trcstat_ptracer52_min        =   1.3917120580964060E-09
(PID.TID 0000.0001) %MON trcstat_ptracer52_mean       =   4.9194465606287191E-04
(PID.TID 0000.0001) %MON trcstat_ptracer52_sd         =   5.1451619238174727E-03
(PID.TID 0000.0001) %MON trcstat_ptracer52_del2       =   7.8193297181643906E-05
(PID.TID 0000.0001) %MON trcstat_ptracer53_max        =   7.1691323071718216E-01
(PID.TID 0000.0001) %MON trcstat_ptracer53_min        =   1.3917120580964060E-09
(PID.TID 0000.0001) %MON trcstat_ptracer53_mean       =   4.9194465606287191E-04
(PID.TID 0000.0001) %MON trcstat_ptracer53_sd         =   5.1451619238174727E-03
(PID.TID 0000.0001) %MON trcstat_ptracer53_del2       =   7.8193297181643906E-05
(PID.TID 0000.0001) %MON trcstat_ptracer54_max        =   7.1691323071718216E-01
(PID.TID 0000.0001) %MON trcstat_ptracer54_min        =   1.3917120580964060E-09
(PID.TID 0000.0001) %MON trcstat_ptracer54_mean       =   4.9194465606287191E-04
(PID.TID 0000.0001) %MON trcstat_ptracer54_sd         =   5.1451619238174727E-03
(PID.TID 0000.0001) %MON trcstat_ptracer54_del2       =   7.8193297181643906E-05
(PID.TID 0000.0001) %MON trcstat_ptracer55_max        =   7.1691323071718216E-01
(PID.TID 0000.0001) %MON trcstat_ptracer55_min        =   1.3917120580964060E-09
(PID.TID 0000.0001) %MON trcstat_ptracer55_mean       =   4.9194465606287191E-04
(PID.TID 0000.0001) %MON trcstat_ptracer55_sd         =   5.1451619238174727E-03
(PID.TID 0000.0001) %MON trcstat_ptracer55_del2       =   7.8193297181643906E-05
(PID.TID 0000.0001) %MON trcstat_ptracer56_max        =   7.1691323071718216E-01
(PID.TID 0000.0001) %MON trcstat_ptracer56_min        =   1.3917120580964060E-09
(PID.TID 0000.0001) %MON trcstat_ptracer56_mean       =   4.9194465606287191E-04
(PID.TID 0000.0001) %MON trcstat_ptracer56_sd         =   5.1451619238174727E-03
(PID.TID 0000.0001) %MON trcstat_ptracer56_del2       =   7.8193297181643906E-05
(PID.TID 0000.0001) %MON trcstat_ptracer57_max        =   7.1691323071718216E-01
(PID.TID 0000.0001) %MON trcstat_ptracer57_min        =   1.3917120580964060E-09
(PID.TID 0000.0001) %MON trcstat_ptracer57_mean       =   4.9194465606287191E-04
(PID.TID 0000.0001) %MON trcstat_ptracer57_sd         =   5.1451619238174727E-03
(PID.TID 0000.0001) %MON trcstat_ptracer57_del2       =   7.8193297181643906E-05
(PID.TID 0000.0001) %MON trcstat_ptracer58_max        =   7.1691323071718216E-01
(PID.TID 0000.0001) %MON trcstat_ptracer58_min        =   1.3917120580964060E-09
(PID.TID 0000.0001) %MON trcstat_ptracer58_mean       =   4.9194465606287191E-04
(PID.TID 0000.0001) %MON trcstat_ptracer58_sd         =   5.1451619238174727E-03
(PID.TID 0000.0001) %MON trcstat_ptracer58_del2       =   7.8193297181643906E-05
(PID.TID 0000.0001) %MON trcstat_ptracer59_max        =   7.1691323071718216E-01
(PID.TID 0000.0001) %MON trcstat_ptracer59_min        =   1.3917120580964060E-09
(PID.TID 0000.0001) %MON trcstat_ptracer59_mean       =   4.9194465606287191E-04
(PID.TID 0000.0001) %MON trcstat_ptracer59_sd         =   5.1451619238174727E-03
(PID.TID 0000.0001) %MON trcstat_ptracer59_del2       =   7.8193297181643906E-05
(PID.TID 0000.0001) %MON trcstat_ptracer60_max        =   7.1691323071718216E-01
(PID.TID 0000.0001) %MON trcstat_ptracer60_min        =   1.3917120580964060E-09
(PID.TID 0000.0001) %MON trcstat_ptracer60_mean       =   4.9194465606287191E-04
(PID.TID 0000.0001) %MON trcstat_ptracer60_sd         =   5.1451619238174727E-03
(PID.TID 0000.0001) %MON trcstat_ptracer60_del2       =   7.8193297181643906E-05
(PID.TID 0000.0001) %MON trcstat_ptracer61_max        =   7.1691323071718216E-01
(PID.TID 0000.0001) %MON trcstat_ptracer61_min        =   1.3917120580964060E-09
(PID.TID 0000.0001) %MON trcstat_ptracer61_mean       =   4.9194465606287191E-04
(PID.TID 0000.0001) %MON trcstat_ptracer61_sd         =   5.1451619238174727E-03
(PID.TID 0000.0001) %MON trcstat_ptracer61_del2       =   7.8193297181643906E-05
(PID.TID 0000.0001) %MON trcstat_ptracer62_max        =   7.1691323071718216E-01
(PID.TID 0000.0001) %MON trcstat_ptracer62_min        =   1.3917120580964060E-09
(PID.TID 0000.0001) %MON trcstat_ptracer62_mean       =   4.9194465606287191E-04
(PID.TID 0000.0001) %MON trcstat_ptracer62_sd         =   5.1451619238174727E-03
(PID.TID 0000.0001) %MON trcstat_ptracer62_del2       =   7.8193297181643906E-05
(PID.TID 0000.0001) %MON trcstat_ptracer63_max        =   7.1691323071718216E-01
(PID.TID 0000.0001) %MON trcstat_ptracer63_min        =   1.3917120580964060E-09
(PID.TID 0000.0001) %MON trcstat_ptracer63_mean       =   4.9194465606287191E-04
(PID.TID 0000.0001) %MON trcstat_ptracer63_sd         =   5.1451619238174727E-03
(PID.TID 0000.0001) %MON trcstat_ptracer63_del2       =   7.8193297181643906E-05
(PID.TID 0000.0001) %MON trcstat_ptracer64_max        =   7.1691323071718216E-01
(PID.TID 0000.0001) %MON trcstat_ptracer64_min        =   1.3917120580964060E-09
(PID.TID 0000.0001) %MON trcstat_ptracer64_mean       =   4.9194465606287191E-04
(PID.TID 0000.0001) %MON trcstat_ptracer64_sd         =   5.1451619238174727E-03
(PID.TID 0000.0001) %MON trcstat_ptracer64_del2       =   7.8193297181643906E-05
(PID.TID 0000.0001) %MON trcstat_ptracer65_max        =   7.1691323071718216E-01
(PID.TID 0000.0001) %MON trcstat_ptracer65_min        =   1.3917120580964060E-09
(PID.TID 0000.0001) %MON trcstat_ptracer65_mean       =   4.9194465606287191E-04
(PID.TID 0000.0001) %MON trcstat_ptracer65_sd         =   5.1451619238174727E-03
(PID.TID 0000.0001) %MON trcstat_ptracer65_del2       =   7.8193297181643906E-05
(PID.TID 0000.0001) %MON trcstat_ptracer66_max        =   7.1691323071718216E-01
(PID.TID 0000.0001) %MON trcstat_ptracer66_min        =   1.3917120580964060E-09
(PID.TID 0000.0001) %MON trcstat_ptracer66_mean       =   4.9194465606287191E-04
(PID.TID 0000.0001) %MON trcstat_ptracer66_sd         =   5.1451619238174727E-03
(PID.TID 0000.0001) %MON trcstat_ptracer66_del2       =   7.8193297181643906E-05
(PID.TID 0000.0001) %MON trcstat_ptracer67_max        =   7.1691323071718216E-01
(PID.TID 0000.0001) %MON trcstat_ptracer67_min        =   1.3917120580964060E-09
(PID.TID 0000.0001) %MON trcstat_ptracer67_mean       =   4.9194465606287191E-04
(PID.TID 0000.0001) %MON trcstat_ptracer67_sd         =   5.1451619238174727E-03
(PID.TID 0000.0001) %MON trcstat_ptracer67_del2       =   7.8193297181643906E-05
(PID.TID 0000.0001) %MON trcstat_ptracer68_max        =   7.1691323071718216E-01
(PID.TID 0000.0001) %MON trcstat_ptracer68_min        =   1.3917120580964060E-09
(PID.TID 0000.0001) %MON trcstat_ptracer68_mean       =   4.9194465606287191E-04
(PID.TID 0000.0001) %MON trcstat_ptracer68_sd         =   5.1451619238174727E-03
(PID.TID 0000.0001) %MON trcstat_ptracer68_del2       =   7.8193297181643906E-05
(PID.TID 0000.0001) %MON trcstat_ptracer69_max        =   7.1691323071718216E-01
(PID.TID 0000.0001) %MON trcstat_ptracer69_min        =   1.3917120580964060E-09
(PID.TID 0000.0001) %MON trcstat_ptracer69_mean       =   4.9194465606287191E-04
(PID.TID 0000.0001) %MON trcstat_ptracer69_sd         =   5.1451619238174727E-03
(PID.TID 0000.0001) %MON trcstat_ptracer69_del2       =   7.8193297181643906E-05
(PID.TID 0000.0001) %MON trcstat_ptracer70_max        =   7.1691323071718216E-01
(PID.TID 0000.0001) %MON trcstat_ptracer70_min        =   1.3917120580964060E-09
(PID.TID 0000.0001) %MON trcstat_ptracer70_mean       =   4.9194465606287191E-04
(PID.TID 0000.0001) %MON trcstat_ptracer70_sd         =   5.1451619238174727E-03
(PID.TID 0000.0001) %MON trcstat_ptracer70_del2       =   7.8193297181643906E-05
(PID.TID 0000.0001) %MON trcstat_ptracer71_max        =   7.1691323071718216E-01
(PID.TID 0000.0001) %MON trcstat_ptracer71_min        =   1.3917120580964060E-09
(PID.TID 0000.0001) %MON trcstat_ptracer71_mean       =   4.9194465606287191E-04
(PID.TID 0000.0001) %MON trcstat_ptracer71_sd         =   5.1451619238174727E-03
(PID.TID 0000.0001) %MON trcstat_ptracer71_del2       =   7.8193297181643906E-05
(PID.TID 0000.0001) %MON trcstat_ptracer72_max        =   7.1691323071718216E-01
(PID.TID 0000.0001) %MON trcstat_ptracer72_min        =   1.3917120580964060E-09
(PID.TID 0000.0001) %MON trcstat_ptracer72_mean       =   4.9194465606287191E-04
(PID.TID 0000.0001) %MON trcstat_ptracer72_sd         =   5.1451619238174727E-03
(PID.TID 0000.0001) %MON trcstat_ptracer72_del2       =   7.8193297181643906E-05
(PID.TID 0000.0001) %MON trcstat_ptracer73_max        =   7.1691323071718216E-01
(PID.TID 0000.0001) %MON trcstat_ptracer73_min        =   1.3917120580964060E-09
(PID.TID 0000.0001) %MON trcstat_ptracer73_mean       =   4.9194465606287191E-04
(PID.TID 0000.0001) %MON trcstat_ptracer73_sd         =   5.1451619238174727E-03
(PID.TID 0000.0001) %MON trcstat_ptracer73_del2       =   7.8193297181643906E-05
(PID.TID 0000.0001) %MON trcstat_ptracer74_max        =   7.1691323071718216E-01
(PID.TID 0000.0001) %MON trcstat_ptracer74_min        =   1.3917120580964060E-09
(PID.TID 0000.0001) %MON trcstat_ptracer74_mean       =   4.9194465606287191E-04
(PID.TID 0000.0001) %MON trcstat_ptracer74_sd         =   5.1451619238174727E-03
(PID.TID 0000.0001) %MON trcstat_ptracer74_del2       =   7.8193297181643906E-05
(PID.TID 0000.0001) %MON trcstat_ptracer75_max        =   7.1691323071718216E-01
(PID.TID 0000.0001) %MON trcstat_ptracer75_min        =   1.3917120580964060E-09
(PID.TID 0000.0001) %MON trcstat_ptracer75_mean       =   4.9194465606287191E-04
(PID.TID 0000.0001) %MON trcstat_ptracer75_sd         =   5.1451619238174727E-03
(PID.TID 0000.0001) %MON trcstat_ptracer75_del2       =   7.8193297181643906E-05
(PID.TID 0000.0001) %MON trcstat_ptracer76_max        =   7.1691323071718216E-01
(PID.TID 0000.0001) %MON trcstat_ptracer76_min        =   1.3917120580964060E-09
(PID.TID 0000.0001) %MON trcstat_ptracer76_mean       =   4.9194465606287191E-04
(PID.TID 0000.0001) %MON trcstat_ptracer76_sd         =   5.1451619238174727E-03
(PID.TID 0000.0001) %MON trcstat_ptracer76_del2       =   7.8193297181643906E-05
(PID.TID 0000.0001) %MON trcstat_ptracer77_max        =   7.1691323071718216E-01
(PID.TID 0000.0001) %MON trcstat_ptracer77_min        =   1.3917120580964060E-09
(PID.TID 0000.0001) %MON trcstat_ptracer77_mean       =   4.9194465606287191E-04
(PID.TID 0000.0001) %MON trcstat_ptracer77_sd         =   5.1451619238174727E-03
(PID.TID 0000.0001) %MON trcstat_ptracer77_del2       =   7.8193297181643906E-05
(PID.TID 0000.0001) %MON trcstat_ptracer78_max        =   7.1691323071718216E-01
(PID.TID 0000.0001) %MON trcstat_ptracer78_min        =   1.3917120580964060E-09
(PID.TID 0000.0001) %MON trcstat_ptracer78_mean       =   4.9194465606287191E-04
(PID.TID 0000.0001) %MON trcstat_ptracer78_sd         =   5.1451619238174727E-03
(PID.TID 0000.0001) %MON trcstat_ptracer78_del2       =   7.8193297181643906E-05
(PID.TID 0000.0001) %MON trcstat_ptracer79_max        =   7.1691323071718216E-01
(PID.TID 0000.0001) %MON trcstat_ptracer79_min        =   1.3917120580964060E-09
(PID.TID 0000.0001) %MON trcstat_ptracer79_mean       =   4.9194465606287191E-04
(PID.TID 0000.0001) %MON trcstat_ptracer79_sd         =   5.1451619238174727E-03
(PID.TID 0000.0001) %MON trcstat_ptracer79_del2       =   7.8193297181643906E-05
(PID.TID 0000.0001) %MON trcstat_ptracer80_max        =   7.1691323071718216E-01
(PID.TID 0000.0001) %MON trcstat_ptracer80_min        =   1.3917120580964060E-09
(PID.TID 0000.0001) %MON trcstat_ptracer80_mean       =   4.9194465606287191E-04
(PID.TID 0000.0001) %MON trcstat_ptracer80_sd         =   5.1451619238174727E-03
(PID.TID 0000.0001) %MON trcstat_ptracer80_del2       =   7.8193297181643906E-05
(PID.TID 0000.0001) %MON trcstat_ptracer81_max        =   7.1691323071718216E-01
(PID.TID 0000.0001) %MON trcstat_ptracer81_min        =   1.3917120580964060E-09
(PID.TID 0000.0001) %MON trcstat_ptracer81_mean       =   4.9194465606287191E-04
(PID.TID 0000.0001) %MON trcstat_ptracer81_sd         =   5.1451619238174727E-03
(PID.TID 0000.0001) %MON trcstat_ptracer81_del2       =   7.8193297181643906E-05
(PID.TID 0000.0001) %MON trcstat_ptracer82_max        =   7.1691323071718216E-01
(PID.TID 0000.0001) %MON trcstat_ptracer82_min        =   1.3917120580964060E-09
(PID.TID 0000.0001) %MON trcstat_ptracer82_mean       =   4.9194465606287191E-04
(PID.TID 0000.0001) %MON trcstat_ptracer82_sd         =   5.1451619238174727E-03
(PID.TID 0000.0001) %MON trcstat_ptracer82_del2       =   7.8193297181643906E-05
(PID.TID 0000.0001) %MON trcstat_ptracer83_max        =   7.1691323071718216E-01
(PID.TID 0000.0001) %MON trcstat_ptracer83_min        =   1.3917120580964060E-09
(PID.TID 0000.0001) %MON trcstat_ptracer83_mean       =   4.9194465606287191E-04
(PID.TID 0000.0001) %MON trcstat_ptracer83_sd         =   5.1451619238174727E-03
(PID.TID 0000.0001) %MON trcstat_ptracer83_del2       =   7.8193297181643906E-05
(PID.TID 0000.0001) %MON trcstat_ptracer84_max        =   7.1691323071718216E-01
(PID.TID 0000.0001) %MON trcstat_ptracer84_min        =   1.3917120580964060E-09
(PID.TID 0000.0001) %MON trcstat_ptracer84_mean       =   4.9194465606287191E-04
(PID.TID 0000.0001) %MON trcstat_ptracer84_sd         =   5.1451619238174727E-03
(PID.TID 0000.0001) %MON trcstat_ptracer84_del2       =   7.8193297181643906E-05
(PID.TID 0000.0001) %MON trcstat_ptracer85_max        =   7.1691323071718216E-01
(PID.TID 0000.0001) %MON trcstat_ptracer85_min        =   1.3917120580964060E-09
(PID.TID 0000.0001) %MON trcstat_ptracer85_mean       =   4.9194465606287191E-04
(PID.TID 0000.0001) %MON trcstat_ptracer85_sd         =   5.1451619238174727E-03
(PID.TID 0000.0001) %MON trcstat_ptracer85_del2       =   7.8193297181643906E-05
(PID.TID 0000.0001) %MON trcstat_ptracer86_max        =   7.1691323071718216E-01
(PID.TID 0000.0001) %MON trcstat_ptracer86_min        =   1.3917120580964060E-09
(PID.TID 0000.0001) %MON trcstat_ptracer86_mean       =   4.9194465606287191E-04
(PID.TID 0000.0001) %MON trcstat_ptracer86_sd         =   5.1451619238174727E-03
(PID.TID 0000.0001) %MON trcstat_ptracer86_del2       =   7.8193297181643906E-05
(PID.TID 0000.0001) %MON trcstat_ptracer87_max        =   7.1691323071718216E-01
(PID.TID 0000.0001) %MON trcstat_ptracer87_min        =   1.3917120580964060E-09
(PID.TID 0000.0001) %MON trcstat_ptracer87_mean       =   4.9194465606287191E-04
(PID.TID 0000.0001) %MON trcstat_ptracer87_sd         =   5.1451619238174727E-03
(PID.TID 0000.0001) %MON trcstat_ptracer87_del2       =   7.8193297181643906E-05
(PID.TID 0000.0001) %MON trcstat_ptracer88_max        =   7.1691323071718216E-01
(PID.TID 0000.0001) %MON trcstat_ptracer88_min        =   1.3917120580964060E-09
(PID.TID 0000.0001) %MON trcstat_ptracer88_mean       =   4.9194465606287191E-04
(PID.TID 0000.0001) %MON trcstat_ptracer88_sd         =   5.1451619238174727E-03
(PID.TID 0000.0001) %MON trcstat_ptracer88_del2       =   7.8193297181643906E-05
(PID.TID 0000.0001) %MON trcstat_ptracer89_max        =   7.1691323071718216E-01
(PID.TID 0000.0001) %MON trcstat_ptracer89_min        =   1.3917120580964060E-09
(PID.TID 0000.0001) %MON trcstat_ptracer89_mean       =   4.9194465606287191E-04
(PID.TID 0000.0001) %MON trcstat_ptracer89_sd         =   5.1451619238174727E-03
(PID.TID 0000.0001) %MON trcstat_ptracer89_del2       =   7.8193297181643906E-05
(PID.TID 0000.0001) %MON trcstat_ptracer90_max        =   7.1691323071718216E-01
(PID.TID 0000.0001) %MON trcstat_ptracer90_min        =   1.3917120580964060E-09
(PID.TID 0000.0001) %MON trcstat_ptracer90_mean       =   4.9194465606287191E-04
(PID.TID 0000.0001) %MON trcstat_ptracer90_sd         =   5.1451619238174727E-03
(PID.TID 0000.0001) %MON trcstat_ptracer90_del2       =   7.8193297181643906E-05
(PID.TID 0000.0001) %MON trcstat_ptracer91_max        =   7.1691323071718216E-01
(PID.TID 0000.0001) %MON trcstat_ptracer91_min        =   1.3917120580964060E-09
(PID.TID 0000.0001) %MON trcstat_ptracer91_mean       =   4.9194465606287191E-04
(PID.TID 0000.0001) %MON trcstat_ptracer91_sd         =   5.1451619238174727E-03
(PID.TID 0000.0001) %MON trcstat_ptracer91_del2       =   7.8193297181643906E-05
(PID.TID 0000.0001) %MON trcstat_ptracer92_max        =   7.1691323071718216E-01
(PID.TID 0000.0001) %MON trcstat_ptracer92_min        =   1.3917120580964060E-09
(PID.TID 0000.0001) %MON trcstat_ptracer92_mean       =   4.9194465606287191E-04
(PID.TID 0000.0001) %MON trcstat_ptracer92_sd         =   5.1451619238174727E-03
(PID.TID 0000.0001) %MON trcstat_ptracer92_del2       =   7.8193297181643906E-05
(PID.TID 0000.0001) %MON trcstat_ptracer93_max        =   7.1691323071718216E-01
(PID.TID 0000.0001) %MON trcstat_ptracer93_min        =   1.3917120580964060E-09
(PID.TID 0000.0001) %MON trcstat_ptracer93_mean       =   4.9194465606287191E-04
(PID.TID 0000.0001) %MON trcstat_ptracer93_sd         =   5.1451619238174727E-03
(PID.TID 0000.0001) %MON trcstat_ptracer93_del2       =   7.8193297181643906E-05
(PID.TID 0000.0001) %MON trcstat_ptracer94_max        =   7.1691323071718216E-01
(PID.TID 0000.0001) %MON trcstat_ptracer94_min        =   1.3917120580964060E-09
(PID.TID 0000.0001) %MON trcstat_ptracer94_mean       =   4.9194465606287191E-04
(PID.TID 0000.0001) %MON trcstat_ptracer94_sd         =   5.1451619238174727E-03
(PID.TID 0000.0001) %MON trcstat_ptracer94_del2       =   7.8193297181643906E-05
(PID.TID 0000.0001) %MON trcstat_ptracer95_max        =   7.1691323071718216E-01
(PID.TID 0000.0001) %MON trcstat_ptracer95_min        =   1.3917120580964060E-09
(PID.TID 0000.0001) %MON trcstat_ptracer95_mean       =   4.9194465606287191E-04
(PID.TID 0000.0001) %MON trcstat_ptracer95_sd         =   5.1451619238174727E-03
(PID.TID 0000.0001) %MON trcstat_ptracer95_del2       =   7.8193297181643906E-05
(PID.TID 0000.0001) %MON trcstat_ptracer96_max        =   6.9899041950702667E+00
(PID.TID 0000.0001) %MON trcstat_ptracer96_min        =   1.3569192436335697E-08
(PID.TID 0000.0001) %MON trcstat_ptracer96_mean       =   4.7964603901285777E-03
(PID.TID 0000.0001) %MON trcstat_ptracer96_sd         =   5.0165328735341436E-02
(PID.TID 0000.0001) %MON trcstat_ptracer96_del2       =   7.6238464609540944E-04
(PID.TID 0000.0001) %MON trcstat_ptracer97_max        =   6.9899041950702667E+00
(PID.TID 0000.0001) %MON trcstat_ptracer97_min        =   1.3569192436335697E-08
(PID.TID 0000.0001) %MON trcstat_ptracer97_mean       =   4.7964603901285777E-03
(PID.TID 0000.0001) %MON trcstat_ptracer97_sd         =   5.0165328735341436E-02
(PID.TID 0000.0001) %MON trcstat_ptracer97_del2       =   7.6238464609540944E-04
(PID.TID 0000.0001) // =======================================================
(PID.TID 0000.0001) // End MONITOR ptracers field statistics
(PID.TID 0000.0001) // =======================================================
(PID.TID 0000.0001) // =======================================================
(PID.TID 0000.0001) // Begin MONITOR EXF statistics
(PID.TID 0000.0001) // =======================================================
(PID.TID 0000.0001) %MON exf_tsnumber                 =               5644800
(PID.TID 0000.0001) %MON exf_time_sec                 =   2.4385536000000000E+11
(PID.TID 0000.0001) %MON exf_ustress_max              =   0.0000000000000000E+00
(PID.TID 0000.0001) %MON exf_ustress_min              =   0.0000000000000000E+00
(PID.TID 0000.0001) %MON exf_ustress_mean             =   0.0000000000000000E+00
(PID.TID 0000.0001) %MON exf_ustress_sd               =   0.0000000000000000E+00
(PID.TID 0000.0001) %MON exf_ustress_del2             =   0.0000000000000000E+00
(PID.TID 0000.0001) %MON exf_vstress_max              =   0.0000000000000000E+00
(PID.TID 0000.0001) %MON exf_vstress_min              =   0.0000000000000000E+00
(PID.TID 0000.0001) %MON exf_vstress_mean             =   0.0000000000000000E+00
(PID.TID 0000.0001) %MON exf_vstress_sd               =   0.0000000000000000E+00
(PID.TID 0000.0001) %MON exf_vstress_del2             =   0.0000000000000000E+00
(PID.TID 0000.0001) %MON exf_hflux_max                =   0.0000000000000000E+00
(PID.TID 0000.0001) %MON exf_hflux_min                =   0.0000000000000000E+00
(PID.TID 0000.0001) %MON exf_hflux_mean               =   0.0000000000000000E+00
(PID.TID 0000.0001) %MON exf_hflux_sd                 =   0.0000000000000000E+00
(PID.TID 0000.0001) %MON exf_hflux_del2               =   0.0000000000000000E+00
(PID.TID 0000.0001) %MON exf_sflux_max                =   0.0000000000000000E+00
(PID.TID 0000.0001) %MON exf_sflux_min                =   0.0000000000000000E+00
(PID.TID 0000.0001) %MON exf_sflux_mean               =   0.0000000000000000E+00
(PID.TID 0000.0001) %MON exf_sflux_sd                 =   0.0000000000000000E+00
(PID.TID 0000.0001) %MON exf_sflux_del2               =   0.0000000000000000E+00
(PID.TID 0000.0001) %MON exf_uwind_max                =   0.0000000000000000E+00
(PID.TID 0000.0001) %MON exf_uwind_min                =   0.0000000000000000E+00
(PID.TID 0000.0001) %MON exf_uwind_mean               =   0.0000000000000000E+00
(PID.TID 0000.0001) %MON exf_uwind_sd                 =   0.0000000000000000E+00
(PID.TID 0000.0001) %MON exf_uwind_del2               =   0.0000000000000000E+00
(PID.TID 0000.0001) %MON exf_vwind_max                =   0.0000000000000000E+00
(PID.TID 0000.0001) %MON exf_vwind_min                =   0.0000000000000000E+00
(PID.TID 0000.0001) %MON exf_vwind_mean               =   0.0000000000000000E+00
(PID.TID 0000.0001) %MON exf_vwind_sd                 =   0.0000000000000000E+00
(PID.TID 0000.0001) %MON exf_vwind_del2               =   0.0000000000000000E+00
(PID.TID 0000.0001) %MON exf_wspeed_max               =   0.0000000000000000E+00
(PID.TID 0000.0001) %MON exf_wspeed_min               =   0.0000000000000000E+00
(PID.TID 0000.0001) %MON exf_wspeed_mean              =   0.0000000000000000E+00
(PID.TID 0000.0001) %MON exf_wspeed_sd                =   0.0000000000000000E+00
(PID.TID 0000.0001) %MON exf_wspeed_del2              =   0.0000000000000000E+00
(PID.TID 0000.0001) %MON exf_evap_max                 =   0.0000000000000000E+00
(PID.TID 0000.0001) %MON exf_evap_min                 =   0.0000000000000000E+00
(PID.TID 0000.0001) %MON exf_evap_mean                =   0.0000000000000000E+00
(PID.TID 0000.0001) %MON exf_evap_sd                  =   0.0000000000000000E+00
(PID.TID 0000.0001) %MON exf_evap_del2                =   0.0000000000000000E+00
(PID.TID 0000.0001) // =======================================================
(PID.TID 0000.0001) // End MONITOR EXF statistics
(PID.TID 0000.0001) // =======================================================
 EXTERNAL_FIELDS_LOAD, it=   5644800 : Reading new data, i0,i1=   12    1 (prev=   12    0 )
(PID.TID 0000.0001)  MDS_READ_FIELD: opening global file: ../input/input_ocmip/tren_taux.bin
(PID.TID 0000.0001)  MDS_READ_FIELD: opening global file: ../input/input_ocmip/tren_taux.bin
(PID.TID 0000.0001)  MDS_READ_FIELD: opening global file: ../input/input_ocmip/tren_tauy.bin
(PID.TID 0000.0001)  MDS_READ_FIELD: opening global file: ../input/input_ocmip/tren_tauy.bin
(PID.TID 0000.0001)  MDS_READ_FIELD: opening global file: ../input/input_ocmip/shi_qnet.bin
(PID.TID 0000.0001)  MDS_READ_FIELD: opening global file: ../input/input_ocmip/shi_qnet.bin
(PID.TID 0000.0001)  MDS_READ_FIELD: opening global file: ../input/input_ocmip/shi_empmr_year.bin
(PID.TID 0000.0001)  MDS_READ_FIELD: opening global file: ../input/input_ocmip/shi_empmr_year.bin
(PID.TID 0000.0001)  MDS_READ_FIELD: opening global file: ../input/input_ocmip/lev_monthly_temp.bin
(PID.TID 0000.0001)  MDS_READ_FIELD: opening global file: ../input/input_ocmip/lev_monthly_temp.bin
(PID.TID 0000.0001)  MDS_READ_FIELD: opening global file: ../input/input_ocmip/lev_monthly_salt.bin
(PID.TID 0000.0001)  MDS_READ_FIELD: opening global file: ../input/input_ocmip/lev_monthly_salt.bin
(PID.TID 0000.0001)  MDS_READ_FIELD: opening global file: ../input/input_ocmip/par_ocmip.bin_mth-2d.bin
(PID.TID 0000.0001)  MDS_READ_FIELD: opening global file: ../input/input_ocmip/par_ocmip.bin_mth-2d.bin
 exf          12           1  0.50000000000000000       0.50000000000000000     
(PID.TID 0000.0001)  MDS_READ_FIELD: opening global file: ../input/input_ocmip/mah_flux_smooth.bin
(PID.TID 0000.0001)  MDS_READ_FIELD: opening global file: ../input/input_ocmip/mah_flux_smooth.bin
 exf          12           1  0.50000000000000000       0.50000000000000000     
(PID.TID 0000.0001)  MDS_READ_FIELD: opening global file: ../input/input_ocmip/fice.bin
(PID.TID 0000.0001)  MDS_READ_FIELD: opening global file: ../input/input_ocmip/fice.bin
 exf          12           1  0.50000000000000000       0.50000000000000000     
(PID.TID 0000.0001) SOLVE_FOR_PRESSURE: putPmEinXvector =    F
 cg2d: Sum(rhs),rhsMax =  -6.05368342121437E-07  7.54400175964654E+00
(PID.TID 0000.0001)      cg2d_init_res =   1.59137915320038E-02
(PID.TID 0000.0001)      cg2d_iters(min,last) =      -1      22
(PID.TID 0000.0001)      cg2d_last_res =   7.51189066202892E-14
 PAR           1   0.0000000000000000        0.0000000000000000        1.0000000000000000     
 PAR           2   0.0000000000000000        0.0000000000000000        1.4000000000000001     
 PAR           3   0.0000000000000000        0.0000000000000000        2.0000000000000000     
 PAR           4   0.0000000000000000        0.0000000000000000        2.8000000000000003     
 PAR           5   0.0000000000000000        0.0000000000000000        3.8000000000000003     
 PAR           6   0.0000000000000000        0.0000000000000000        4.7999999999999998     
 PAR           7   0.0000000000000000        0.0000000000000000        5.7999999999999998     
 PAR           8   0.0000000000000000        0.0000000000000000        6.7999999999999998     
 PAR           9   0.0000000000000000        0.0000000000000000        7.7999999999999998     
 PAR          10   0.0000000000000000        0.0000000000000000        8.8000000000000007     
 PAR          11   0.0000000000000000        0.0000000000000000        9.8000000000000007     
 PAR          12   0.0000000000000000        0.0000000000000000        10.800000000000001     
 PAR          13   0.0000000000000000        0.0000000000000000        11.800000000000001     
 PAR          14   0.0000000000000000        0.0000000000000000        12.800000000000001     
 PAR          15   0.0000000000000000        0.0000000000000000        13.800000000000001     
 fe   0.0000000000000000     
 fe   0.0000000000000000        0.0000000000000000     
 PAR           1   0.0000000000000000        0.0000000000000000        1.0000000000000000     
 PAR           2   0.0000000000000000        0.0000000000000000        1.4000000000000001     
 PAR           3   0.0000000000000000        0.0000000000000000        2.0000000000000000     
 PAR           4   0.0000000000000000        0.0000000000000000        2.8000000000000003     
 PAR           5   0.0000000000000000        0.0000000000000000        3.8000000000000003     
 PAR           6   0.0000000000000000        0.0000000000000000        4.7999999999999998     
 PAR           7   0.0000000000000000        0.0000000000000000        5.7999999999999998     
 PAR           8   0.0000000000000000        0.0000000000000000        6.7999999999999998     
 PAR           9   0.0000000000000000        0.0000000000000000        7.7999999999999998     
 PAR          10   0.0000000000000000        0.0000000000000000        8.8000000000000007     
 PAR          11   0.0000000000000000        0.0000000000000000        9.8000000000000007     
 PAR          12   0.0000000000000000        0.0000000000000000        10.800000000000001     
 PAR          13   0.0000000000000000        0.0000000000000000        11.800000000000001     
 PAR          14   0.0000000000000000        0.0000000000000000        12.800000000000001     
 PAR          15   0.0000000000000000        0.0000000000000000        13.800000000000001     
 fe   0.0000000000000000     
 fe   0.0000000000000000        0.0000000000000000     
 PAR           1   0.0000000000000000        0.0000000000000000        1.0000000000000000     
 PAR           2   0.0000000000000000        0.0000000000000000        1.4000000000000001     
 PAR           3   0.0000000000000000        0.0000000000000000        2.0000000000000000     
 PAR           4   0.0000000000000000        0.0000000000000000        2.8000000000000003     
 PAR           5   0.0000000000000000        0.0000000000000000        3.8000000000000003     
 PAR           6   0.0000000000000000        0.0000000000000000        4.7999999999999998     
 PAR           7   0.0000000000000000        0.0000000000000000        5.7999999999999998     
 PAR           8   0.0000000000000000        0.0000000000000000        6.7999999999999998     
 PAR           9   0.0000000000000000        0.0000000000000000        7.7999999999999998     
 PAR          10   0.0000000000000000        0.0000000000000000        8.8000000000000007     
 PAR          11   0.0000000000000000        0.0000000000000000        9.8000000000000007     
 PAR          12   0.0000000000000000        0.0000000000000000        10.800000000000001     
 PAR          13   0.0000000000000000        0.0000000000000000        11.800000000000001     
 PAR          14   0.0000000000000000        0.0000000000000000        12.800000000000001     
 PAR          15   0.0000000000000000        0.0000000000000000        13.800000000000001     
 fe   0.0000000000000000     
 fe   0.0000000000000000        0.0000000000000000     
 PAR           1   0.0000000000000000        0.0000000000000000        1.0000000000000000     
 PAR           2   0.0000000000000000        0.0000000000000000        1.4000000000000001     
 PAR           3   0.0000000000000000        0.0000000000000000        2.0000000000000000     
 PAR           4   0.0000000000000000        0.0000000000000000        2.8000000000000003     
 PAR           5   0.0000000000000000        0.0000000000000000        3.8000000000000003     
 PAR           6   0.0000000000000000        0.0000000000000000        4.7999999999999998     
 PAR           7   0.0000000000000000        0.0000000000000000        5.7999999999999998     
 PAR           8   0.0000000000000000        0.0000000000000000        6.7999999999999998     
 PAR           9   0.0000000000000000        0.0000000000000000        7.7999999999999998     
 PAR          10   0.0000000000000000        0.0000000000000000        8.8000000000000007     
 PAR          11   0.0000000000000000        0.0000000000000000        9.8000000000000007     
 PAR          12   0.0000000000000000        0.0000000000000000        10.800000000000001     
 PAR          13   0.0000000000000000        0.0000000000000000        11.800000000000001     
 PAR          14   0.0000000000000000        0.0000000000000000        12.800000000000001     
 PAR          15   0.0000000000000000        0.0000000000000000        13.800000000000001     
 fe   0.0000000000000000     
 fe   0.0000000000000000        0.0000000000000000     
 PAR           1   0.0000000000000000        0.0000000000000000        1.0000000000000000     
 PAR           2   0.0000000000000000        0.0000000000000000        1.4000000000000001     
 PAR           3   0.0000000000000000        0.0000000000000000        2.0000000000000000     
 PAR           4   0.0000000000000000        0.0000000000000000        2.8000000000000003     
 PAR           5   0.0000000000000000        0.0000000000000000        3.8000000000000003     
 PAR           6   0.0000000000000000        0.0000000000000000        4.7999999999999998     
 PAR           7   0.0000000000000000        0.0000000000000000        5.7999999999999998     
 PAR           8   0.0000000000000000        0.0000000000000000        6.7999999999999998     
 PAR           9   0.0000000000000000        0.0000000000000000        7.7999999999999998     
 PAR          10   0.0000000000000000        0.0000000000000000        8.8000000000000007     
 PAR          11   0.0000000000000000        0.0000000000000000        9.8000000000000007     
 PAR          12   0.0000000000000000        0.0000000000000000        10.800000000000001     
 PAR          13   0.0000000000000000        0.0000000000000000        11.800000000000001     
 PAR          14   0.0000000000000000        0.0000000000000000        12.800000000000001     
 PAR          15   0.0000000000000000        0.0000000000000000        13.800000000000001     
 fe   0.0000000000000000     
 fe   0.0000000000000000        0.0000000000000000     
 PAR           1   0.0000000000000000        0.0000000000000000        1.0000000000000000     
 PAR           2   0.0000000000000000        0.0000000000000000        1.4000000000000001     
 PAR           3   0.0000000000000000        0.0000000000000000        2.0000000000000000     
 PAR           4   0.0000000000000000        0.0000000000000000        2.8000000000000003     
 PAR           5   0.0000000000000000        0.0000000000000000        3.8000000000000003     
 PAR           6   0.0000000000000000        0.0000000000000000        4.7999999999999998     
 PAR           7   0.0000000000000000        0.0000000000000000        5.7999999999999998     
 PAR           8   0.0000000000000000        0.0000000000000000        6.7999999999999998     
 PAR           9   0.0000000000000000        0.0000000000000000        7.7999999999999998     
 PAR          10   0.0000000000000000        0.0000000000000000        8.8000000000000007     
 PAR          11   0.0000000000000000        0.0000000000000000        9.8000000000000007     
 PAR          12   0.0000000000000000        0.0000000000000000        10.800000000000001     
 PAR          13   0.0000000000000000        0.0000000000000000        11.800000000000001     
 PAR          14   0.0000000000000000        0.0000000000000000        12.800000000000001     
 PAR          15   0.0000000000000000        0.0000000000000000        13.800000000000001     
 fe   0.0000000000000000     
 fe   0.0000000000000000        0.0000000000000000     
 PAR           1   0.0000000000000000        0.0000000000000000        1.0000000000000000     
 PAR           2   0.0000000000000000        0.0000000000000000        1.4000000000000001     
 PAR           3   0.0000000000000000        0.0000000000000000        2.0000000000000000     
 PAR           4   0.0000000000000000        0.0000000000000000        2.8000000000000003     
 PAR           5   0.0000000000000000        0.0000000000000000        3.8000000000000003     
 PAR           6   0.0000000000000000        0.0000000000000000        4.7999999999999998     
 PAR           7   0.0000000000000000        0.0000000000000000        5.7999999999999998     
 PAR           8   0.0000000000000000        0.0000000000000000        6.7999999999999998     
 PAR           9   0.0000000000000000        0.0000000000000000        7.7999999999999998     
 PAR          10   0.0000000000000000        0.0000000000000000        8.8000000000000007     
 PAR          11   0.0000000000000000        0.0000000000000000        9.8000000000000007     
 PAR          12   0.0000000000000000        0.0000000000000000        10.800000000000001     
 PAR          13   0.0000000000000000        0.0000000000000000        11.800000000000001     
 PAR          14   0.0000000000000000        0.0000000000000000        12.800000000000001     
 PAR          15   0.0000000000000000        0.0000000000000000        13.800000000000001     
 fe   0.0000000000000000     
 fe   0.0000000000000000        0.0000000000000000     
 PAR           1   0.0000000000000000        0.0000000000000000        1.0000000000000000     
 PAR           2   0.0000000000000000        0.0000000000000000        1.4000000000000001     
 PAR           3   0.0000000000000000        0.0000000000000000        2.0000000000000000     
 PAR           4   0.0000000000000000        0.0000000000000000        2.8000000000000003     
 PAR           5   0.0000000000000000        0.0000000000000000        3.8000000000000003     
 PAR           6   0.0000000000000000        0.0000000000000000        4.7999999999999998     
 PAR           7   0.0000000000000000        0.0000000000000000        5.7999999999999998     
 PAR           8   0.0000000000000000        0.0000000000000000        6.7999999999999998     
 PAR           9   0.0000000000000000        0.0000000000000000        7.7999999999999998     
 PAR          10   0.0000000000000000        0.0000000000000000        8.8000000000000007     
 PAR          11   0.0000000000000000        0.0000000000000000        9.8000000000000007     
 PAR          12   0.0000000000000000        0.0000000000000000        10.800000000000001     
 PAR          13   0.0000000000000000        0.0000000000000000        11.800000000000001     
 PAR          14   0.0000000000000000        0.0000000000000000        12.800000000000001     
 PAR          15   0.0000000000000000        0.0000000000000000        13.800000000000001     
 fe   0.0000000000000000     
 fe   0.0000000000000000        0.0000000000000000     
(PID.TID 0000.0001) // =======================================================
(PID.TID 0000.0001) // Begin MONITOR dynamic field statistics
(PID.TID 0000.0001) // =======================================================
(PID.TID 0000.0001) %MON time_tsnumber                =               5644801
(PID.TID 0000.0001) %MON time_secondsf                =   2.4385540320000000E+11
(PID.TID 0000.0001) %MON dynstat_eta_max              =   9.3711923053630530E-01
(PID.TID 0000.0001) %MON dynstat_eta_min              =  -1.7305068608986975E+00
(PID.TID 0000.0001) %MON dynstat_eta_mean             =   1.6246257487269889E-10
(PID.TID 0000.0001) %MON dynstat_eta_sd               =   6.5174294624010964E-01
(PID.TID 0000.0001) %MON dynstat_eta_del2             =   9.2916548180735142E-04
(PID.TID 0000.0001) %MON dynstat_uvel_max             =   1.5513369191489287E-01
(PID.TID 0000.0001) %MON dynstat_uvel_min             =  -1.8453487673594793E-01
(PID.TID 0000.0001) %MON dynstat_uvel_mean            =   2.9501853655047689E-03
(PID.TID 0000.0001) %MON dynstat_uvel_sd              =   1.3888245927797463E-02
(PID.TID 0000.0001) %MON dynstat_uvel_del2            =   3.8115539865670760E-05
(PID.TID 0000.0001) %MON dynstat_vvel_max             =   1.1196082331801557E-01
(PID.TID 0000.0001) %MON dynstat_vvel_min             =  -1.5166835089545888E-01
(PID.TID 0000.0001) %MON dynstat_vvel_mean            =  -1.9221357240846535E-04
(PID.TID 0000.0001) %MON dynstat_vvel_sd              =   6.3571349841719665E-03
(PID.TID 0000.0001) %MON dynstat_vvel_del2            =   2.6613086542045497E-05
(PID.TID 0000.0001) %MON dynstat_wvel_max             =   4.3063427626979797E-05
(PID.TID 0000.0001) %MON dynstat_wvel_min             =  -6.4970094182436355E-05
(PID.TID 0000.0001) %MON dynstat_wvel_mean            =  -7.3905911684751561E-23
(PID.TID 0000.0001) %MON dynstat_wvel_sd              =   1.9039109380105337E-06
(PID.TID 0000.0001) %MON dynstat_wvel_del2            =   1.3084115229147395E-08
(PID.TID 0000.0001) %MON dynstat_theta_max            =   2.9953784819706151E+01
(PID.TID 0000.0001) %MON dynstat_theta_min            =  -2.1379251179878707E+00
(PID.TID 0000.0001) %MON dynstat_theta_mean           =   3.7551449719968204E+00
(PID.TID 0000.0001) %MON dynstat_theta_sd             =   5.1497928609322026E+00
(PID.TID 0000.0001) %MON dynstat_theta_del2           =   2.2450162450492919E-03
(PID.TID 0000.0001) %MON dynstat_salt_max             =   3.7553833793841186E+01
(PID.TID 0000.0001) %MON dynstat_salt_min             =   3.1355599749520685E+01
(PID.TID 0000.0001) %MON dynstat_salt_mean            =   3.4543282692406400E+01
(PID.TID 0000.0001) %MON dynstat_salt_sd              =   3.5868437918066193E-01
(PID.TID 0000.0001) %MON dynstat_salt_del2            =   3.8099260787749148E-04
(PID.TID 0000.0001) %MON forcing_qnet_max             =   4.5173381042480469E+02
(PID.TID 0000.0001) %MON forcing_qnet_min             =  -2.1320401000976563E+02
(PID.TID 0000.0001) %MON forcing_qnet_mean            =  -1.7634591469579000E+01
(PID.TID 0000.0001) %MON forcing_qnet_sd              =   1.1599881404185476E+02
(PID.TID 0000.0001) %MON forcing_qnet_del2            =   2.7302567191348992E-01
(PID.TID 0000.0001) %MON forcing_qsw_max              =   0.0000000000000000E+00
(PID.TID 0000.0001) %MON forcing_qsw_min              =   0.0000000000000000E+00
(PID.TID 0000.0001) %MON forcing_qsw_mean             =   0.0000000000000000E+00
(PID.TID 0000.0001) %MON forcing_qsw_sd               =   0.0000000000000000E+00
(PID.TID 0000.0001) %MON forcing_qsw_del2             =   0.0000000000000000E+00
(PID.TID 0000.0001) %MON forcing_empmr_max            =   6.9206222512718796E-05
(PID.TID 0000.0001) %MON forcing_empmr_min            =  -1.5544422772961752E-04
(PID.TID 0000.0001) %MON forcing_empmr_mean           =   1.2460352661810301E-14
(PID.TID 0000.0001) %MON forcing_empmr_sd             =   2.4700019777611149E-05
(PID.TID 0000.0001) %MON forcing_empmr_del2           =   1.1591736879228609E-07
(PID.TID 0000.0001) %MON forcing_fu_max               =   2.6936699450016022E-01
(PID.TID 0000.0001) %MON forcing_fu_min               =  -1.5727265179157257E-01
(PID.TID 0000.0001) %MON forcing_fu_mean              =   1.7831973356732405E-02
(PID.TID 0000.0001) %MON forcing_fu_sd                =   8.9620299147479751E-02
(PID.TID 0000.0001) %MON forcing_fu_del2              =   2.4782395373364142E-04
(PID.TID 0000.0001) %MON forcing_fv_max               =   1.9744335860013962E-01
(PID.TID 0000.0001) %MON forcing_fv_min               =  -1.5944199264049530E-01
(PID.TID 0000.0001) %MON forcing_fv_mean              =  -6.4503818001954896E-03
(PID.TID 0000.0001) %MON forcing_fv_sd                =   4.4276273939354197E-02
(PID.TID 0000.0001) %MON forcing_fv_del2              =   1.7990220506046566E-04
(PID.TID 0000.0001) %MON advcfl_uvel_max              =   4.0061637225570698E-02
(PID.TID 0000.0001) %MON advcfl_vvel_max              =   2.0954117767882585E-02
(PID.TID 0000.0001) %MON advcfl_wvel_max              =   1.3147981225896959E-02
(PID.TID 0000.0001) %MON advcfl_W_hf_max              =   1.5495835016235700E-02
(PID.TID 0000.0001) %MON pe_b_mean                    =   5.8633886579121611E-04
(PID.TID 0000.0001) %MON ke_max                       =   1.7885149972186300E-02
(PID.TID 0000.0001) %MON ke_mean                      =   1.1150737021517801E-04
(PID.TID 0000.0001) %MON ke_vol                       =   1.1739855207380157E+18
(PID.TID 0000.0001) %MON vort_r_min                   =  -5.5446608387695888E-07
(PID.TID 0000.0001) %MON vort_r_max                   =   6.2111605841996909E-07
(PID.TID 0000.0001) %MON vort_a_mean                  =  -2.5798915502264590E-05
(PID.TID 0000.0001) %MON vort_a_sd                    =   7.3558772869366382E-05
(PID.TID 0000.0001) %MON vort_p_mean                  =  -3.0020960747216240E-05
(PID.TID 0000.0001) %MON vort_p_sd                    =   9.8090578046796075E-05
(PID.TID 0000.0001) %MON surfExpan_theta_mean         =  -2.9532654695924761E-07
(PID.TID 0000.0001) %MON surfExpan_salt_mean          =   2.3754721100881155E-08
(PID.TID 0000.0001) // =======================================================
(PID.TID 0000.0001) // End MONITOR dynamic field statistics
(PID.TID 0000.0001) // =======================================================
(PID.TID 0000.0001) // =======================================================
(PID.TID 0000.0001) // Begin MONITOR ptracer field statistics
(PID.TID 0000.0001) // =======================================================
(PID.TID 0000.0001) %MON trcstat_ptracer01_max        =   2.0000114804242892E+03
(PID.TID 0000.0001) %MON trcstat_ptracer01_min        =   1.9985448305273205E+03
(PID.TID 0000.0001) %MON trcstat_ptracer01_mean       =   1.9999979049882731E+03
(PID.TID 0000.0001) %MON trcstat_ptracer01_sd         =   2.5933970262356006E-02
(PID.TID 0000.0001) %MON trcstat_ptracer01_del2       =   1.7394941664677929E-04
(PID.TID 0000.0001) %MON trcstat_ptracer02_max        =   4.4164375145869816E-01
(PID.TID 0000.0001) %MON trcstat_ptracer02_min        =   2.7080944100752161E-07
(PID.TID 0000.0001) %MON trcstat_ptracer02_mean       =   5.3989695858905834E-03
(PID.TID 0000.0001) %MON trcstat_ptracer02_sd         =   2.2308187735868373E-02
(PID.TID 0000.0001) %MON trcstat_ptracer02_del2       =   4.5946010583169063E-05
(PID.TID 0000.0001) %MON trcstat_ptracer03_max        =   2.4283728670570284E+00
(PID.TID 0000.0001) %MON trcstat_ptracer03_min        =   2.7531571203027796E-06
(PID.TID 0000.0001) %MON trcstat_ptracer03_mean       =   3.0288293686766655E-02
(PID.TID 0000.0001) %MON trcstat_ptracer03_sd         =   8.9380743195829601E-02
(PID.TID 0000.0001) %MON trcstat_ptracer03_del2       =   1.1706311983186913E-04
(PID.TID 0000.0001) %MON trcstat_ptracer04_max        =   5.5517122774792981E+01
(PID.TID 0000.0001) %MON trcstat_ptracer04_min        =   1.8266849855878129E-04
(PID.TID 0000.0001) %MON trcstat_ptracer04_mean       =   3.0320057207107151E+01
(PID.TID 0000.0001) %MON trcstat_ptracer04_sd         =   9.3074394682413324E+00
(PID.TID 0000.0001) %MON trcstat_ptracer04_del2       =   7.2116437519608003E-03
(PID.TID 0000.0001) %MON trcstat_ptracer05_max        =   3.4906181110433425E+00
(PID.TID 0000.0001) %MON trcstat_ptracer05_min        =   4.7204362980925840E-02
(PID.TID 0000.0001) %MON trcstat_ptracer05_mean       =   2.1106225935934892E+00
(PID.TID 0000.0001) %MON trcstat_ptracer05_sd         =   6.4915303224176057E-01
(PID.TID 0000.0001) %MON trcstat_ptracer05_del2       =   3.7298675922604684E-04
(PID.TID 0000.0001) %MON trcstat_ptracer06_max        =   1.8844211582233015E+02
(PID.TID 0000.0001) %MON trcstat_ptracer06_min        =   4.3433852788417970E-01
(PID.TID 0000.0001) %MON trcstat_ptracer06_mean       =   8.3739598707069803E+01
(PID.TID 0000.0001) %MON trcstat_ptracer06_sd         =   4.9672648624907524E+01
(PID.TID 0000.0001) %MON trcstat_ptracer06_del2       =   1.6834672654773293E-02
(PID.TID 0000.0001) %MON trcstat_ptracer07_max        =   1.3877660153928241E-03
(PID.TID 0000.0001) %MON trcstat_ptracer07_min        =   4.1312902129194104E-06
(PID.TID 0000.0001) %MON trcstat_ptracer07_mean       =   3.2965723050713407E-04
(PID.TID 0000.0001) %MON trcstat_ptracer07_sd         =   2.1710162366102867E-04
(PID.TID 0000.0001) %MON trcstat_ptracer07_del2       =   2.1261205863002024E-07
(PID.TID 0000.0001) %MON trcstat_ptracer08_max        =   2.1167440075959121E+00
(PID.TID 0000.0001) %MON trcstat_ptracer08_min        =   3.7445550049754618E-09
(PID.TID 0000.0001) %MON trcstat_ptracer08_mean       =   1.3730381263187786E-03
(PID.TID 0000.0001) %MON trcstat_ptracer08_sd         =   1.4556677078115678E-02
(PID.TID 0000.0001) %MON trcstat_ptracer08_del2       =   2.3138910311533764E-04
(PID.TID 0000.0001) %MON trcstat_ptracer09_max        =   2.0480705661061198E+00
(PID.TID 0000.0001) %MON trcstat_ptracer09_min        =  -2.6436261240533167E-03
(PID.TID 0000.0001) %MON trcstat_ptracer09_mean       =   1.7217951344260116E-02
(PID.TID 0000.0001) %MON trcstat_ptracer09_sd         =   1.0946866942761124E-01
(PID.TID 0000.0001) %MON trcstat_ptracer09_del2       =   3.3661577871907361E-04
(PID.TID 0000.0001) %MON trcstat_ptracer10_max        =   1.2800441038163249E-01
(PID.TID 0000.0001) %MON trcstat_ptracer10_min        =  -1.6522663275333229E-04
(PID.TID 0000.0001) %MON trcstat_ptracer10_mean       =   1.0761219590162572E-03
(PID.TID 0000.0001) %MON trcstat_ptracer10_sd         =   6.8417918392257027E-03
(PID.TID 0000.0001) %MON trcstat_ptracer10_del2       =   2.1038486169942101E-05
(PID.TID 0000.0001) %MON trcstat_ptracer11_max        =   7.2884347094747599E-05
(PID.TID 0000.0001) %MON trcstat_ptracer11_min        =  -1.4242501234091477E-07
(PID.TID 0000.0001) %MON trcstat_ptracer11_mean       =   2.9554179589522781E-07
(PID.TID 0000.0001) %MON trcstat_ptracer11_sd         =   2.0840820339539323E-06
(PID.TID 0000.0001) %MON trcstat_ptracer11_del2       =   7.6767816035766658E-09
(PID.TID 0000.0001) %MON trcstat_ptracer12_max        =   1.9323105685352859E+00
(PID.TID 0000.0001) %MON trcstat_ptracer12_min        =   2.0338913954085226E-09
(PID.TID 0000.0001) %MON trcstat_ptracer12_mean       =   8.4675520848663305E-04
(PID.TID 0000.0001) %MON trcstat_ptracer12_sd         =   1.0665128514215126E-02
(PID.TID 0000.0001) %MON trcstat_ptracer12_del2       =   2.0063379803168612E-04
(PID.TID 0000.0001) %MON trcstat_ptracer13_max        =   2.9504482154977478E+00
(PID.TID 0000.0001) %MON trcstat_ptracer13_min        =   1.3383186579197914E-06
(PID.TID 0000.0001) %MON trcstat_ptracer13_mean       =   2.6946225953080494E-02
(PID.TID 0000.0001) %MON trcstat_ptracer13_sd         =   5.8326326816066747E-02
(PID.TID 0000.0001) %MON trcstat_ptracer13_del2       =   2.6287557219455794E-04
(PID.TID 0000.0001) %MON trcstat_ptracer14_max        =   1.8440301346860924E-01
(PID.TID 0000.0001) %MON trcstat_ptracer14_min        =   8.3644916119986960E-08
(PID.TID 0000.0001) %MON trcstat_ptracer14_mean       =   1.6841391220675309E-03
(PID.TID 0000.0001) %MON trcstat_ptracer14_sd         =   3.6453954260041717E-03
(PID.TID 0000.0001) %MON trcstat_ptracer14_del2       =   1.6429723262159871E-05
(PID.TID 0000.0001) %MON trcstat_ptracer15_max        =   4.0320701012435642E+01
(PID.TID 0000.0001) %MON trcstat_ptracer15_min        =  -1.3275923482410759E-01
(PID.TID 0000.0001) %MON trcstat_ptracer15_mean       =   1.5140868741514904E-01
(PID.TID 0000.0001) %MON trcstat_ptracer15_sd         =   4.0999370177065775E-01
(PID.TID 0000.0001) %MON trcstat_ptracer15_del2       =   2.1477730116975019E-03
(PID.TID 0000.0001) %MON trcstat_ptracer16_max        =   1.9122778000541660E-04
(PID.TID 0000.0001) %MON trcstat_ptracer16_min        =   1.3445481716746443E-11
(PID.TID 0000.0001) %MON trcstat_ptracer16_mean       =   7.4585416412185997E-07
(PID.TID 0000.0001) %MON trcstat_ptracer16_sd         =   2.3844626354568302E-06
(PID.TID 0000.0001) %MON trcstat_ptracer16_del2       =   1.2193191215582324E-08
(PID.TID 0000.0001) %MON trcstat_ptracer17_max        =   0.0000000000000000E+00
(PID.TID 0000.0001) %MON trcstat_ptracer17_min        =   0.0000000000000000E+00
(PID.TID 0000.0001) %MON trcstat_ptracer17_mean       =   0.0000000000000000E+00
(PID.TID 0000.0001) %MON trcstat_ptracer17_sd         =   0.0000000000000000E+00
(PID.TID 0000.0001) %MON trcstat_ptracer17_del2       =   0.0000000000000000E+00
(PID.TID 0000.0001) %MON trcstat_ptracer18_max        =   6.3097482801179750E-01
(PID.TID 0000.0001) %MON trcstat_ptracer18_min        =   1.3249538188136409E-09
(PID.TID 0000.0001) %MON trcstat_ptracer18_mean       =   4.7505781491547102E-04
(PID.TID 0000.0001) %MON trcstat_ptracer18_sd         =   4.7875160992891571E-03
(PID.TID 0000.0001) %MON trcstat_ptracer18_del2       =   7.1119299915990637E-05
(PID.TID 0000.0001) %MON trcstat_ptracer19_max        =   6.3705107635627012E-01
(PID.TID 0000.0001) %MON trcstat_ptracer19_min        =   1.3236330300852082E-09
(PID.TID 0000.0001) %MON trcstat_ptracer19_mean       =   4.7912404006482639E-04
(PID.TID 0000.0001) %MON trcstat_ptracer19_sd         =   4.8360717778141698E-03
(PID.TID 0000.0001) %MON trcstat_ptracer19_del2       =   7.1632437732894211E-05
(PID.TID 0000.0001) %MON trcstat_ptracer20_max        =   6.4141719909676354E-01
(PID.TID 0000.0001) %MON trcstat_ptracer20_min        =   1.3249538189202614E-09
(PID.TID 0000.0001) %MON trcstat_ptracer20_mean       =   4.7590970216646148E-04
(PID.TID 0000.0001) %MON trcstat_ptracer20_sd         =   4.8126836505124199E-03
(PID.TID 0000.0001) %MON trcstat_ptracer20_del2       =   7.1988770063234413E-05
(PID.TID 0000.0001) %MON trcstat_ptracer21_max        =   6.3705107635627012E-01
(PID.TID 0000.0001) %MON trcstat_ptracer21_min        =   1.3236330300852082E-09
(PID.TID 0000.0001) %MON trcstat_ptracer21_mean       =   4.7136209520679629E-04
(PID.TID 0000.0001) %MON trcstat_ptracer21_sd         =   4.7742418686863462E-03
(PID.TID 0000.0001) %MON trcstat_ptracer21_del2       =   7.1518397002702253E-05
(PID.TID 0000.0001) %MON trcstat_ptracer22_max        =   6.3705107635627012E-01
(PID.TID 0000.0001) %MON trcstat_ptracer22_min        =   1.3236330300852082E-09
(PID.TID 0000.0001) %MON trcstat_ptracer22_mean       =   5.0155851228262825E-04
(PID.TID 0000.0001) %MON trcstat_ptracer22_sd         =   5.0432472805067392E-03
(PID.TID 0000.0001) %MON trcstat_ptracer22_del2       =   7.2460105383409268E-05
(PID.TID 0000.0001) %MON trcstat_ptracer23_max        =   6.3705107635627012E-01
(PID.TID 0000.0001) %MON trcstat_ptracer23_min        =   1.3236330300852082E-09
(PID.TID 0000.0001) %MON trcstat_ptracer23_mean       =   4.8217819393044998E-04
(PID.TID 0000.0001) %MON trcstat_ptracer23_sd         =   4.8450868764666304E-03
(PID.TID 0000.0001) %MON trcstat_ptracer23_del2       =   7.1778449652742398E-05
(PID.TID 0000.0001) %MON trcstat_ptracer24_max        =   6.4141719909676354E-01
(PID.TID 0000.0001) %MON trcstat_ptracer24_min        =   1.3249538189202614E-09
(PID.TID 0000.0001) %MON trcstat_ptracer24_mean       =   4.9849634123536599E-04
(PID.TID 0000.0001) %MON trcstat_ptracer24_sd         =   4.9985991864587090E-03
(PID.TID 0000.0001) %MON trcstat_ptracer24_del2       =   7.2460055492762398E-05
(PID.TID 0000.0001) %MON trcstat_ptracer25_max        =   6.3705107635627012E-01
(PID.TID 0000.0001) %MON trcstat_ptracer25_min        =   1.3236330300852082E-09
(PID.TID 0000.0001) %MON trcstat_ptracer25_mean       =   4.7543720138399628E-04
(PID.TID 0000.0001) %MON trcstat_ptracer25_sd         =   4.8176227963864469E-03
(PID.TID 0000.0001) %MON trcstat_ptracer25_del2       =   7.1716557219406131E-05
(PID.TID 0000.0001) %MON trcstat_ptracer26_max        =   6.3705107635627012E-01
(PID.TID 0000.0001) %MON trcstat_ptracer26_min        =   1.3236330300852082E-09
(PID.TID 0000.0001) %MON trcstat_ptracer26_mean       =   4.7825938244887620E-04
(PID.TID 0000.0001) %MON trcstat_ptracer26_sd         =   4.8308126098330854E-03
(PID.TID 0000.0001) %MON trcstat_ptracer26_del2       =   7.1656970357189884E-05
(PID.TID 0000.0001) %MON trcstat_ptracer27_max        =   6.3097482801179750E-01
(PID.TID 0000.0001) %MON trcstat_ptracer27_min        =   1.3249538188136409E-09
(PID.TID 0000.0001) %MON trcstat_ptracer27_mean       =   4.8201868773743722E-04
(PID.TID 0000.0001) %MON trcstat_ptracer27_sd         =   4.8335150335152106E-03
(PID.TID 0000.0001) %MON trcstat_ptracer27_del2       =   7.1125327012855929E-05
(PID.TID 0000.0001) %MON trcstat_ptracer28_max        =   6.3705107635627012E-01
(PID.TID 0000.0001) %MON trcstat_ptracer28_min        =   1.3236330300852082E-09
(PID.TID 0000.0001) %MON trcstat_ptracer28_mean       =   4.9792795762262096E-04
(PID.TID 0000.0001) %MON trcstat_ptracer28_sd         =   5.0368341174326795E-03
(PID.TID 0000.0001) %MON trcstat_ptracer28_del2       =   7.2824532383647766E-05
(PID.TID 0000.0001) %MON trcstat_ptracer29_max        =   6.3705107635627012E-01
(PID.TID 0000.0001) %MON trcstat_ptracer29_min        =   1.3236330300852082E-09
(PID.TID 0000.0001) %MON trcstat_ptracer29_mean       =   4.7763154345699551E-04
(PID.TID 0000.0001) %MON trcstat_ptracer29_sd         =   4.8315550540278668E-03
(PID.TID 0000.0001) %MON trcstat_ptracer29_del2       =   7.1801439261744680E-05
(PID.TID 0000.0001) %MON trcstat_ptracer30_max        =   6.3705107635627012E-01
(PID.TID 0000.0001) %MON trcstat_ptracer30_min        =   1.3236330300852082E-09
(PID.TID 0000.0001) %MON trcstat_ptracer30_mean       =   4.6847700211278761E-04
(PID.TID 0000.0001) %MON trcstat_ptracer30_sd         =   4.7515700617020975E-03
(PID.TID 0000.0001) %MON trcstat_ptracer30_del2       =   7.1386889597909210E-05
(PID.TID 0000.0001) %MON trcstat_ptracer31_max        =   6.4141719909676354E-01
(PID.TID 0000.0001) %MON trcstat_ptracer31_min        =   1.3249538189202614E-09
(PID.TID 0000.0001) %MON trcstat_ptracer31_mean       =   5.2805193863213488E-04
(PID.TID 0000.0001) %MON trcstat_ptracer31_sd         =   5.1538242520354468E-03
(PID.TID 0000.0001) %MON trcstat_ptracer31_del2       =   7.2356380193298213E-05
(PID.TID 0000.0001) %MON trcstat_ptracer32_max        =   6.3097482801179750E-01
(PID.TID 0000.0001) %MON trcstat_ptracer32_min        =   1.3249538188136409E-09
(PID.TID 0000.0001) %MON trcstat_ptracer32_mean       =   5.1194410225014419E-04
(PID.TID 0000.0001) %MON trcstat_ptracer32_sd         =   5.0452155762671482E-03
(PID.TID 0000.0001) %MON trcstat_ptracer32_del2       =   7.1641120542737942E-05
(PID.TID 0000.0001) %MON trcstat_ptracer33_max        =   6.3705107635627012E-01
(PID.TID 0000.0001) %MON trcstat_ptracer33_min        =   1.3236330300852082E-09
(PID.TID 0000.0001) %MON trcstat_ptracer33_mean       =   4.6547170591324226E-04
(PID.TID 0000.0001) %MON trcstat_ptracer33_sd         =   4.7231757843548003E-03
(PID.TID 0000.0001) %MON trcstat_ptracer33_del2       =   7.1251435064640157E-05
(PID.TID 0000.0001) %MON trcstat_ptracer34_max        =   6.3097482801179750E-01
(PID.TID 0000.0001) %MON trcstat_ptracer34_min        =   1.3249538188136409E-09
(PID.TID 0000.0001) %MON trcstat_ptracer34_mean       =   5.3703602664012843E-04
(PID.TID 0000.0001) %MON trcstat_ptracer34_sd         =   5.2580406384886737E-03
(PID.TID 0000.0001) %MON trcstat_ptracer34_del2       =   7.2015542282901520E-05
(PID.TID 0000.0001) %MON trcstat_ptracer35_max        =   6.3097482801179750E-01
(PID.TID 0000.0001) %MON trcstat_ptracer35_min        =   1.3249538188136409E-09
(PID.TID 0000.0001) %MON trcstat_ptracer35_mean       =   5.2423891428619309E-04
(PID.TID 0000.0001) %MON trcstat_ptracer35_sd         =   5.1679172718082098E-03
(PID.TID 0000.0001) %MON trcstat_ptracer35_del2       =   7.1976822628444533E-05
(PID.TID 0000.0001) %MON trcstat_ptracer36_max        =   6.3705107635627012E-01
(PID.TID 0000.0001) %MON trcstat_ptracer36_min        =   1.3236330300852082E-09
(PID.TID 0000.0001) %MON trcstat_ptracer36_mean       =   4.9764209093163035E-04
(PID.TID 0000.0001) %MON trcstat_ptracer36_sd         =   5.0120501986451738E-03
(PID.TID 0000.0001) %MON trcstat_ptracer36_del2       =   7.2427908235089678E-05
(PID.TID 0000.0001) %MON trcstat_ptracer37_max        =   6.3705107635627012E-01
(PID.TID 0000.0001) %MON trcstat_ptracer37_min        =   1.3236330300852082E-09
(PID.TID 0000.0001) %MON trcstat_ptracer37_mean       =   4.7247774984188374E-04
(PID.TID 0000.0001) %MON trcstat_ptracer37_sd         =   4.7831259431443066E-03
(PID.TID 0000.0001) %MON trcstat_ptracer37_del2       =   7.1623287744268220E-05
(PID.TID 0000.0001) %MON trcstat_ptracer38_max        =   6.3705107635627012E-01
(PID.TID 0000.0001) %MON trcstat_ptracer38_min        =   1.3236330300852082E-09
(PID.TID 0000.0001) %MON trcstat_ptracer38_mean       =   4.6692367676206094E-04
(PID.TID 0000.0001) %MON trcstat_ptracer38_sd         =   4.7387956730681547E-03
(PID.TID 0000.0001) %MON trcstat_ptracer38_del2       =   7.1324545428435730E-05
(PID.TID 0000.0001) %MON trcstat_ptracer39_max        =   6.3097482801179750E-01
(PID.TID 0000.0001) %MON trcstat_ptracer39_min        =   1.3249538188136409E-09
(PID.TID 0000.0001) %MON trcstat_ptracer39_mean       =   5.3238427540819972E-04
(PID.TID 0000.0001) %MON trcstat_ptracer39_sd         =   5.2326404695332389E-03
(PID.TID 0000.0001) %MON trcstat_ptracer39_del2       =   7.2107047747322080E-05
(PID.TID 0000.0001) %MON trcstat_ptracer40_max        =   6.3705107635627012E-01
(PID.TID 0000.0001) %MON trcstat_ptracer40_min        =   1.3236330300852082E-09
(PID.TID 0000.0001) %MON trcstat_ptracer40_mean       =   4.7719158904547230E-04
(PID.TID 0000.0001) %MON trcstat_ptracer40_sd         =   4.8224940092123662E-03
(PID.TID 0000.0001) %MON trcstat_ptracer40_del2       =   7.1626890186902187E-05
(PID.TID 0000.0001) %MON trcstat_ptracer41_max        =   6.3705107635627012E-01
(PID.TID 0000.0001) %MON trcstat_ptracer41_min        =   1.3236330300852082E-09
(PID.TID 0000.0001) %MON trcstat_ptracer41_mean       =   4.7694824655486766E-04
(PID.TID 0000.0001) %MON trcstat_ptracer41_sd         =   4.8232106528824379E-03
(PID.TID 0000.0001) %MON trcstat_ptracer41_del2       =   7.1752094870356322E-05
(PID.TID 0000.0001) %MON trcstat_ptracer42_max        =   6.3705107635627012E-01
(PID.TID 0000.0001) %MON trcstat_ptracer42_min        =   1.3236330300852082E-09
(PID.TID 0000.0001) %MON trcstat_ptracer42_mean       =   4.7581429623007998E-04
(PID.TID 0000.0001) %MON trcstat_ptracer42_sd         =   4.8213449304639567E-03
(PID.TID 0000.0001) %MON trcstat_ptracer42_del2       =   7.1731153909841355E-05
(PID.TID 0000.0001) %MON trcstat_ptracer43_max        =   6.3705107635627012E-01
(PID.TID 0000.0001) %MON trcstat_ptracer43_min        =   1.3236330300852082E-09
(PID.TID 0000.0001) %MON trcstat_ptracer43_mean       =   5.1538815633930910E-04
(PID.TID 0000.0001) %MON trcstat_ptracer43_sd         =   5.1056328601572229E-03
(PID.TID 0000.0001) %MON trcstat_ptracer43_del2       =   7.2301484931040335E-05
(PID.TID 0000.0001) %MON trcstat_ptracer44_max        =   6.3097482801179750E-01
(PID.TID 0000.0001) %MON trcstat_ptracer44_min        =   1.3249538188136409E-09
(PID.TID 0000.0001) %MON trcstat_ptracer44_mean       =   4.7066987350285751E-04
(PID.TID 0000.0001) %MON trcstat_ptracer44_sd         =   4.7453508811410861E-03
(PID.TID 0000.0001) %MON trcstat_ptracer44_del2       =   7.0903492209795459E-05
(PID.TID 0000.0001) %MON trcstat_ptracer45_max        =   6.3097482801179750E-01
(PID.TID 0000.0001) %MON trcstat_ptracer45_min        =   1.3249538188136409E-09
(PID.TID 0000.0001) %MON trcstat_ptracer45_mean       =   4.9347654219169309E-04
(PID.TID 0000.0001) %MON trcstat_ptracer45_sd         =   4.8905209180898548E-03
(PID.TID 0000.0001) %MON trcstat_ptracer45_del2       =   7.1019834939928819E-05
(PID.TID 0000.0001) %MON trcstat_ptracer46_max        =   6.3705107635627012E-01
(PID.TID 0000.0001) %MON trcstat_ptracer46_min        =   1.3236330300852082E-09
(PID.TID 0000.0001) %MON trcstat_ptracer46_mean       =   4.6978508824254388E-04
(PID.TID 0000.0001) %MON trcstat_ptracer46_sd         =   4.7615716084332058E-03
(PID.TID 0000.0001) %MON trcstat_ptracer46_del2       =   7.1460566932563812E-05
(PID.TID 0000.0001) %MON trcstat_ptracer47_max        =   6.3705107635627012E-01
(PID.TID 0000.0001) %MON trcstat_ptracer47_min        =   1.3236330300852082E-09
(PID.TID 0000.0001) %MON trcstat_ptracer47_mean       =   4.7357351865729807E-04
(PID.TID 0000.0001) %MON trcstat_ptracer47_sd         =   4.7897141048231047E-03
(PID.TID 0000.0001) %MON trcstat_ptracer47_del2       =   7.1647334936422198E-05
(PID.TID 0000.0001) %MON trcstat_ptracer48_max        =   6.4141719909676354E-01
(PID.TID 0000.0001) %MON trcstat_ptracer48_min        =   1.3249538189202614E-09
(PID.TID 0000.0001) %MON trcstat_ptracer48_mean       =   4.8945737940096995E-04
(PID.TID 0000.0001) %MON trcstat_ptracer48_sd         =   4.9106621826288423E-03
(PID.TID 0000.0001) %MON trcstat_ptracer48_del2       =   7.2094789348551750E-05
(PID.TID 0000.0001) %MON trcstat_ptracer49_max        =   6.3705107635627012E-01
(PID.TID 0000.0001) %MON trcstat_ptracer49_min        =   1.3236330300852082E-09
(PID.TID 0000.0001) %MON trcstat_ptracer49_mean       =   4.8908502655391802E-04
(PID.TID 0000.0001) %MON trcstat_ptracer49_sd         =   4.9468764452924811E-03
(PID.TID 0000.0001) %MON trcstat_ptracer49_del2       =   7.2595406625118998E-05
(PID.TID 0000.0001) %MON trcstat_ptracer50_max        =   6.3705107635627012E-01
(PID.TID 0000.0001) %MON trcstat_ptracer50_min        =   1.3236330300852082E-09
(PID.TID 0000.0001) %MON trcstat_ptracer50_mean       =   4.7577371555423763E-04
(PID.TID 0000.0001) %MON trcstat_ptracer50_sd         =   4.8205021427574195E-03
(PID.TID 0000.0001) %MON trcstat_ptracer50_del2       =   7.1679437634300804E-05
(PID.TID 0000.0001) %MON trcstat_ptracer51_max        =   6.3097482801179750E-01
(PID.TID 0000.0001) %MON trcstat_ptracer51_min        =   1.3249538188136409E-09
(PID.TID 0000.0001) %MON trcstat_ptracer51_mean       =   4.8987388036655000E-04
(PID.TID 0000.0001) %MON trcstat_ptracer51_sd         =   4.8379101520809077E-03
(PID.TID 0000.0001) %MON trcstat_ptracer51_del2       =   7.0858798196090609E-05
(PID.TID 0000.0001) %MON trcstat_ptracer52_max        =   6.3097482801179750E-01
(PID.TID 0000.0001) %MON trcstat_ptracer52_min        =   1.3249538188136409E-09
(PID.TID 0000.0001) %MON trcstat_ptracer52_mean       =   5.1454563086614832E-04
(PID.TID 0000.0001) %MON trcstat_ptracer52_sd         =   5.0993811637954833E-03
(PID.TID 0000.0001) %MON trcstat_ptracer52_del2       =   7.1793317444853128E-05
(PID.TID 0000.0001) %MON trcstat_ptracer53_max        =   6.3705107635627012E-01
(PID.TID 0000.0001) %MON trcstat_ptracer53_min        =   1.3236330300852082E-09
(PID.TID 0000.0001) %MON trcstat_ptracer53_mean       =   5.0606307938779946E-04
(PID.TID 0000.0001) %MON trcstat_ptracer53_sd         =   5.0518695056310011E-03
(PID.TID 0000.0001) %MON trcstat_ptracer53_del2       =   7.2199724523710292E-05
(PID.TID 0000.0001) %MON trcstat_ptracer54_max        =   6.3705107635627012E-01
(PID.TID 0000.0001) %MON trcstat_ptracer54_min        =   1.3236330300852082E-09
(PID.TID 0000.0001) %MON trcstat_ptracer54_mean       =   4.7446692012494162E-04
(PID.TID 0000.0001) %MON trcstat_ptracer54_sd         =   4.8131766990882740E-03
(PID.TID 0000.0001) %MON trcstat_ptracer54_del2       =   7.1712895015369049E-05
(PID.TID 0000.0001) %MON trcstat_ptracer55_max        =   6.4141719909676354E-01
(PID.TID 0000.0001) %MON trcstat_ptracer55_min        =   1.3249538189202614E-09
(PID.TID 0000.0001) %MON trcstat_ptracer55_mean       =   5.2120981871692977E-04
(PID.TID 0000.0001) %MON trcstat_ptracer55_sd         =   5.1288581499632641E-03
(PID.TID 0000.0001) %MON trcstat_ptracer55_del2       =   7.2498173687232697E-05
(PID.TID 0000.0001) %MON trcstat_ptracer56_max        =   6.4141719909676354E-01
(PID.TID 0000.0001) %MON trcstat_ptracer56_min        =   1.3249538189202614E-09
(PID.TID 0000.0001) %MON trcstat_ptracer56_mean       =   5.0195962641805974E-04
(PID.TID 0000.0001) %MON trcstat_ptracer56_sd         =   5.0334417367088914E-03
(PID.TID 0000.0001) %MON trcstat_ptracer56_del2       =   7.2650628571145238E-05
(PID.TID 0000.0001) %MON trcstat_ptracer57_max        =   6.3097482801179750E-01
(PID.TID 0000.0001) %MON trcstat_ptracer57_min        =   1.3249538188136409E-09
(PID.TID 0000.0001) %MON trcstat_ptracer57_mean       =   4.8992330535141924E-04
(PID.TID 0000.0001) %MON trcstat_ptracer57_sd         =   4.8831395071673870E-03
(PID.TID 0000.0001) %MON trcstat_ptracer57_del2       =   7.1094985377962745E-05
(PID.TID 0000.0001) %MON trcstat_ptracer58_max        =   6.3097482801179750E-01
(PID.TID 0000.0001) %MON trcstat_ptracer58_min        =   1.3249538188136409E-09
(PID.TID 0000.0001) %MON trcstat_ptracer58_mean       =   4.8468595203401667E-04
(PID.TID 0000.0001) %MON trcstat_ptracer58_sd         =   4.8752185496445102E-03
(PID.TID 0000.0001) %MON trcstat_ptracer58_del2       =   7.1543742045057212E-05
(PID.TID 0000.0001) %MON trcstat_ptracer59_max        =   6.3097482801179750E-01
(PID.TID 0000.0001) %MON trcstat_ptracer59_min        =   1.3249538188136409E-09
(PID.TID 0000.0001) %MON trcstat_ptracer59_mean       =   5.2688482248339642E-04
(PID.TID 0000.0001) %MON trcstat_ptracer59_sd         =   5.1564690267767044E-03
(PID.TID 0000.0001) %MON trcstat_ptracer59_del2       =   7.1664667941596087E-05
(PID.TID 0000.0001) %MON trcstat_ptracer60_max        =   6.4141719909676354E-01
(PID.TID 0000.0001) %MON trcstat_ptracer60_min        =   1.3249538189202614E-09
(PID.TID 0000.0001) %MON trcstat_ptracer60_mean       =   5.1982822796392471E-04
(PID.TID 0000.0001) %MON trcstat_ptracer60_sd         =   5.1275962410501728E-03
(PID.TID 0000.0001) %MON trcstat_ptracer60_del2       =   7.2661137344095286E-05
(PID.TID 0000.0001) %MON trcstat_ptracer61_max        =   6.4141719909676354E-01
(PID.TID 0000.0001) %MON trcstat_ptracer61_min        =   1.3249538189202614E-09
(PID.TID 0000.0001) %MON trcstat_ptracer61_mean       =   4.9379157240133655E-04
(PID.TID 0000.0001) %MON trcstat_ptracer61_sd         =   4.9627357337967632E-03
(PID.TID 0000.0001) %MON trcstat_ptracer61_del2       =   7.2339254951835617E-05
(PID.TID 0000.0001) %MON trcstat_ptracer62_max        =   6.4141719909676354E-01
(PID.TID 0000.0001) %MON trcstat_ptracer62_min        =   1.3249538189202614E-09
(PID.TID 0000.0001) %MON trcstat_ptracer62_mean       =   4.9014518143137599E-04
(PID.TID 0000.0001) %MON trcstat_ptracer62_sd         =   4.9333825194001150E-03
(PID.TID 0000.0001) %MON trcstat_ptracer62_del2       =   7.2276768603948821E-05
(PID.TID 0000.0001) %MON trcstat_ptracer63_max        =   6.3097482801179750E-01
(PID.TID 0000.0001) %MON trcstat_ptracer63_min        =   1.3249538188136409E-09
(PID.TID 0000.0001) %MON trcstat_ptracer63_mean       =   4.7071861179599024E-04
(PID.TID 0000.0001) %MON trcstat_ptracer63_sd         =   4.7339372087630794E-03
(PID.TID 0000.0001) %MON trcstat_ptracer63_del2       =   7.0793705707098117E-05
(PID.TID 0000.0001) %MON trcstat_ptracer64_max        =   6.3705107635627012E-01
(PID.TID 0000.0001) %MON trcstat_ptracer64_min        =   1.3236330300852082E-09
(PID.TID 0000.0001) %MON trcstat_ptracer64_mean       =   4.8262111643436115E-04
(PID.TID 0000.0001) %MON trcstat_ptracer64_sd         =   4.8531757968276659E-03
(PID.TID 0000.0001) %MON trcstat_ptracer64_del2       =   7.1697721612744631E-05
(PID.TID 0000.0001) %MON trcstat_ptracer65_max        =   6.4141719909676354E-01
(PID.TID 0000.0001) %MON trcstat_ptracer65_min        =   1.3249538189202614E-09
(PID.TID 0000.0001) %MON trcstat_ptracer65_mean       =   5.0445287362685636E-04
(PID.TID 0000.0001) %MON trcstat_ptracer65_sd         =   5.0462935267547269E-03
(PID.TID 0000.0001) %MON trcstat_ptracer65_del2       =   7.2548628060588330E-05
(PID.TID 0000.0001) %MON trcstat_ptracer66_max        =   6.4141719909676354E-01
(PID.TID 0000.0001) %MON trcstat_ptracer66_min        =   1.3249538189202614E-09
(PID.TID 0000.0001) %MON trcstat_ptracer66_mean       =   4.7753851370902297E-04
(PID.TID 0000.0001) %MON trcstat_ptracer66_sd         =   4.8120804215056150E-03
(PID.TID 0000.0001) %MON trcstat_ptracer66_del2       =   7.1830007427181017E-05
(PID.TID 0000.0001) %MON trcstat_ptracer67_max        =   6.4141719909676354E-01
(PID.TID 0000.0001) %MON trcstat_ptracer67_min        =   1.3249538189202614E-09
(PID.TID 0000.0001) %MON trcstat_ptracer67_mean       =   4.9007982794494820E-04
(PID.TID 0000.0001) %MON trcstat_ptracer67_sd         =   4.9241311060947467E-03
(PID.TID 0000.0001) %MON trcstat_ptracer67_del2       =   7.2172270413621995E-05
(PID.TID 0000.0001) %MON trcstat_ptracer68_max        =   6.3705107635627012E-01
(PID.TID 0000.0001) %MON trcstat_ptracer68_min        =   1.3236330300852082E-09
(PID.TID 0000.0001) %MON trcstat_ptracer68_mean       =   4.6898131074733486E-04
(PID.TID 0000.0001) %MON trcstat_ptracer68_sd         =   4.7646077156581245E-03
(PID.TID 0000.0001) %MON trcstat_ptracer68_del2       =   7.1408798629361581E-05
(PID.TID 0000.0001) %MON trcstat_ptracer69_max        =   6.4141719909676354E-01
(PID.TID 0000.0001) %MON trcstat_ptracer69_min        =   1.3249538189202614E-09
(PID.TID 0000.0001) %MON trcstat_ptracer69_mean       =   5.0167819277229658E-04
(PID.TID 0000.0001) %MON trcstat_ptracer69_sd         =   5.0275428091936091E-03
(PID.TID 0000.0001) %MON trcstat_ptracer69_del2       =   7.2579186212348137E-05
(PID.TID 0000.0001) %MON trcstat_ptracer70_max        =   6.3097482801179750E-01
(PID.TID 0000.0001) %MON trcstat_ptracer70_min        =   1.3249538188136409E-09
(PID.TID 0000.0001) %MON trcstat_ptracer70_mean       =   4.7905301970553702E-04
(PID.TID 0000.0001) %MON trcstat_ptracer70_sd         =   4.8125626878536311E-03
(PID.TID 0000.0001) %MON trcstat_ptracer70_del2       =   7.1131719241180049E-05
(PID.TID 0000.0001) %MON trcstat_ptracer71_max        =   6.3705107635627012E-01
(PID.TID 0000.0001) %MON trcstat_ptracer71_min        =   1.3236330300852082E-09
(PID.TID 0000.0001) %MON trcstat_ptracer71_mean       =   4.9790972396339308E-04
(PID.TID 0000.0001) %MON trcstat_ptracer71_sd         =   5.0206489894773559E-03
(PID.TID 0000.0001) %MON trcstat_ptracer71_del2       =   7.2483710744748392E-05
(PID.TID 0000.0001) %MON trcstat_ptracer72_max        =   6.3705107635627012E-01
(PID.TID 0000.0001) %MON trcstat_ptracer72_min        =   1.3236330300852082E-09
(PID.TID 0000.0001) %MON trcstat_ptracer72_mean       =   4.9554758924395489E-04
(PID.TID 0000.0001) %MON trcstat_ptracer72_sd         =   5.0002875098433238E-03
(PID.TID 0000.0001) %MON trcstat_ptracer72_del2       =   7.2623374025095169E-05
(PID.TID 0000.0001) %MON trcstat_ptracer73_max        =   6.3705107635627012E-01
(PID.TID 0000.0001) %MON trcstat_ptracer73_min        =   1.3236330300852082E-09
(PID.TID 0000.0001) %MON trcstat_ptracer73_mean       =   5.0214233642800277E-04
(PID.TID 0000.0001) %MON trcstat_ptracer73_sd         =   4.9691425173290530E-03
(PID.TID 0000.0001) %MON trcstat_ptracer73_del2       =   7.1952554961563633E-05
(PID.TID 0000.0001) %MON trcstat_ptracer74_max        =   6.3705107635627012E-01
(PID.TID 0000.0001) %MON trcstat_ptracer74_min        =   1.3236330300852082E-09
(PID.TID 0000.0001) %MON trcstat_ptracer74_mean       =   4.8175243350047418E-04
(PID.TID 0000.0001) %MON trcstat_ptracer74_sd         =   4.8616932719794505E-03
(PID.TID 0000.0001) %MON trcstat_ptracer74_del2       =   7.1791687035268931E-05
(PID.TID 0000.0001) %MON trcstat_ptracer75_max        =   6.3097482801179750E-01
(PID.TID 0000.0001) %MON trcstat_ptracer75_min        =   1.3249538188136409E-09
(PID.TID 0000.0001) %MON trcstat_ptracer75_mean       =   5.0119446384717351E-04
(PID.TID 0000.0001) %MON trcstat_ptracer75_sd         =   4.9269424816526831E-03
(PID.TID 0000.0001) %MON trcstat_ptracer75_del2       =   7.1034802935854901E-05
(PID.TID 0000.0001) %MON trcstat_ptracer76_max        =   6.4141719909676354E-01
(PID.TID 0000.0001) %MON trcstat_ptracer76_min        =   1.3249538189202614E-09
(PID.TID 0000.0001) %MON trcstat_ptracer76_mean       =   4.8540156416702716E-04
(PID.TID 0000.0001) %MON trcstat_ptracer76_sd         =   4.9011769267194461E-03
(PID.TID 0000.0001) %MON trcstat_ptracer76_del2       =   7.2433241165957595E-05
(PID.TID 0000.0001) %MON trcstat_ptracer77_max        =   6.3705107635627012E-01
(PID.TID 0000.0001) %MON trcstat_ptracer77_min        =   1.3236330300852082E-09
(PID.TID 0000.0001) %MON trcstat_ptracer77_mean       =   4.7730316366738622E-04
(PID.TID 0000.0001) %MON trcstat_ptracer77_sd         =   4.8315542431974319E-03
(PID.TID 0000.0001) %MON trcstat_ptracer77_del2       =   7.1775423411043798E-05
(PID.TID 0000.0001) %MON trcstat_ptracer78_max        =   6.3097482801179750E-01
(PID.TID 0000.0001) %MON trcstat_ptracer78_min        =   1.3249538188136409E-09
(PID.TID 0000.0001) %MON trcstat_ptracer78_mean       =   4.9564179952619038E-04
(PID.TID 0000.0001) %MON trcstat_ptracer78_sd         =   4.9488348809089899E-03
(PID.TID 0000.0001) %MON trcstat_ptracer78_del2       =   7.1433183715320563E-05
(PID.TID 0000.0001) %MON trcstat_ptracer79_max        =   6.4141719909676354E-01
(PID.TID 0000.0001) %MON trcstat_ptracer79_min        =   1.3249538189202614E-09
(PID.TID 0000.0001) %MON trcstat_ptracer79_mean       =   5.2072028708447958E-04
(PID.TID 0000.0001) %MON trcstat_ptracer79_sd         =   5.1277565214950215E-03
(PID.TID 0000.0001) %MON trcstat_ptracer79_del2       =   7.2615667783986848E-05
(PID.TID 0000.0001) %MON trcstat_ptracer80_max        =   6.4141719909676354E-01
(PID.TID 0000.0001) %MON trcstat_ptracer80_min        =   1.3249538189202614E-09
(PID.TID 0000.0001) %MON trcstat_ptracer80_mean       =   5.1414913202259748E-04
(PID.TID 0000.0001) %MON trcstat_ptracer80_sd         =   5.1050116445431381E-03
(PID.TID 0000.0001) %MON trcstat_ptracer80_del2       =   7.2549999118507369E-05
(PID.TID 0000.0001) %MON trcstat_ptracer81_max        =   6.3705107635627012E-01
(PID.TID 0000.0001) %MON trcstat_ptracer81_min        =   1.3236330300852082E-09
(PID.TID 0000.0001) %MON trcstat_ptracer81_mean       =   4.7238491101185624E-04
(PID.TID 0000.0001) %MON trcstat_ptracer81_sd         =   4.7735945141982698E-03
(PID.TID 0000.0001) %MON trcstat_ptracer81_del2       =   7.1513080264505645E-05
(PID.TID 0000.0001) %MON trcstat_ptracer82_max        =   6.3705107635627012E-01
(PID.TID 0000.0001) %MON trcstat_ptracer82_min        =   1.3236330300852082E-09
(PID.TID 0000.0001) %MON trcstat_ptracer82_mean       =   4.9335785937708668E-04
(PID.TID 0000.0001) %MON trcstat_ptracer82_sd         =   4.9973230276592956E-03
(PID.TID 0000.0001) %MON trcstat_ptracer82_del2       =   7.2786670574676588E-05
(PID.TID 0000.0001) %MON trcstat_ptracer83_max        =   6.3705107635627012E-01
(PID.TID 0000.0001) %MON trcstat_ptracer83_min        =   1.3236330300852082E-09
(PID.TID 0000.0001) %MON trcstat_ptracer83_mean       =   4.6679034198315308E-04
(PID.TID 0000.0001) %MON trcstat_ptracer83_sd         =   4.7370041303049816E-03
(PID.TID 0000.0001) %MON trcstat_ptracer83_del2       =   7.1316362317295842E-05
(PID.TID 0000.0001) %MON trcstat_ptracer84_max        =   6.4141719909676354E-01
(PID.TID 0000.0001) %MON trcstat_ptracer84_min        =   1.3249538189202614E-09
(PID.TID 0000.0001) %MON trcstat_ptracer84_mean       =   4.9439823354635441E-04
(PID.TID 0000.0001) %MON trcstat_ptracer84_sd         =   4.9538229044799572E-03
(PID.TID 0000.0001) %MON trcstat_ptracer84_del2       =   7.2220358781532597E-05
(PID.TID 0000.0001) %MON trcstat_ptracer85_max        =   6.3705107635627012E-01
(PID.TID 0000.0001) %MON trcstat_ptracer85_min        =   1.3236330300852082E-09
(PID.TID 0000.0001) %MON trcstat_ptracer85_mean       =   4.7140735776180317E-04
(PID.TID 0000.0001) %MON trcstat_ptracer85_sd         =   4.7773517137673352E-03
(PID.TID 0000.0001) %MON trcstat_ptracer85_del2       =   7.1524971189580418E-05
(PID.TID 0000.0001) %MON trcstat_ptracer86_max        =   6.3705107635627012E-01
(PID.TID 0000.0001) %MON trcstat_ptracer86_min        =   1.3236330300852082E-09
(PID.TID 0000.0001) %MON trcstat_ptracer86_mean       =   4.6542275167360655E-04
(PID.TID 0000.0001) %MON trcstat_ptracer86_sd         =   4.7327238468856800E-03
(PID.TID 0000.0001) %MON trcstat_ptracer86_del2       =   7.1233078607404589E-05
(PID.TID 0000.0001) %MON trcstat_ptracer87_max        =   6.3705107635627012E-01
(PID.TID 0000.0001) %MON trcstat_ptracer87_min        =   1.3236330300852082E-09
(PID.TID 0000.0001) %MON trcstat_ptracer87_mean       =   4.7668251880643133E-04
(PID.TID 0000.0001) %MON trcstat_ptracer87_sd         =   4.8153722188272871E-03
(PID.TID 0000.0001) %MON trcstat_ptracer87_del2       =   7.1600937462159515E-05
(PID.TID 0000.0001) %MON trcstat_ptracer88_max        =   6.3705107635627012E-01
(PID.TID 0000.0001) %MON trcstat_ptracer88_min        =   1.3236330300852082E-09
(PID.TID 0000.0001) %MON trcstat_ptracer88_mean       =   5.1336484090098913E-04
(PID.TID 0000.0001) %MON trcstat_ptracer88_sd         =   5.0553119264760936E-03
(PID.TID 0000.0001) %MON trcstat_ptracer88_del2       =   7.2152299902289861E-05
(PID.TID 0000.0001) %MON trcstat_ptracer89_max        =   6.3097482801179750E-01
(PID.TID 0000.0001) %MON trcstat_ptracer89_min        =   1.3249538188136409E-09
(PID.TID 0000.0001) %MON trcstat_ptracer89_mean       =   5.1102511969298569E-04
(PID.TID 0000.0001) %MON trcstat_ptracer89_sd         =   5.0879358883493316E-03
(PID.TID 0000.0001) %MON trcstat_ptracer89_del2       =   7.1965995707322074E-05
(PID.TID 0000.0001) %MON trcstat_ptracer90_max        =   6.3097482801179750E-01
(PID.TID 0000.0001) %MON trcstat_ptracer90_min        =   1.3249538188136409E-09
(PID.TID 0000.0001) %MON trcstat_ptracer90_mean       =   4.9196628743731769E-04
(PID.TID 0000.0001) %MON trcstat_ptracer90_sd         =   4.9044918111252724E-03
(PID.TID 0000.0001) %MON trcstat_ptracer90_del2       =   7.1190573691668269E-05
(PID.TID 0000.0001) %MON trcstat_ptracer91_max        =   6.4141719909676354E-01
(PID.TID 0000.0001) %MON trcstat_ptracer91_min        =   1.3249538189202614E-09
(PID.TID 0000.0001) %MON trcstat_ptracer91_mean       =   4.7158341356341304E-04
(PID.TID 0000.0001) %MON trcstat_ptracer91_sd         =   4.7758965092935578E-03
(PID.TID 0000.0001) %MON trcstat_ptracer91_del2       =   7.1834938722258173E-05
(PID.TID 0000.0001) %MON trcstat_ptracer92_max        =   6.3705107635627012E-01
(PID.TID 0000.0001) %MON trcstat_ptracer92_min        =   1.3236330300852082E-09
(PID.TID 0000.0001) %MON trcstat_ptracer92_mean       =   4.9095995234564507E-04
(PID.TID 0000.0001) %MON trcstat_ptracer92_sd         =   4.8749143773789260E-03
(PID.TID 0000.0001) %MON trcstat_ptracer92_del2       =   7.1620440848214808E-05
(PID.TID 0000.0001) %MON trcstat_ptracer93_max        =   6.3705107635627012E-01
(PID.TID 0000.0001) %MON trcstat_ptracer93_min        =   1.3236330300852082E-09
(PID.TID 0000.0001) %MON trcstat_ptracer93_mean       =   4.8697586976540321E-04
(PID.TID 0000.0001) %MON trcstat_ptracer93_sd         =   4.9328950144241638E-03
(PID.TID 0000.0001) %MON trcstat_ptracer93_del2       =   7.2559335512055876E-05
(PID.TID 0000.0001) %MON trcstat_ptracer94_max        =   6.3705107635627012E-01
(PID.TID 0000.0001) %MON trcstat_ptracer94_min        =   1.3236330300852082E-09
(PID.TID 0000.0001) %MON trcstat_ptracer94_mean       =   4.8592598958231123E-04
(PID.TID 0000.0001) %MON trcstat_ptracer94_sd         =   4.8811390272212691E-03
(PID.TID 0000.0001) %MON trcstat_ptracer94_del2       =   7.1707051460079738E-05
(PID.TID 0000.0001) %MON trcstat_ptracer95_max        =   6.3705107635627012E-01
(PID.TID 0000.0001) %MON trcstat_ptracer95_min        =   1.3236330300852082E-09
(PID.TID 0000.0001) %MON trcstat_ptracer95_mean       =   4.9731961508511563E-04
(PID.TID 0000.0001) %MON trcstat_ptracer95_sd         =   5.0293374368406037E-03
(PID.TID 0000.0001) %MON trcstat_ptracer95_del2       =   7.2778374111596194E-05
(PID.TID 0000.0001) %MON trcstat_ptracer96_max        =   7.3382051642948651E+00
(PID.TID 0000.0001) %MON trcstat_ptracer96_min        =   1.3346593327907265E-08
(PID.TID 0000.0001) %MON trcstat_ptracer96_mean       =   4.7899770681725119E-03
(PID.TID 0000.0001) %MON trcstat_ptracer96_sd         =   5.0634052126652104E-02
(PID.TID 0000.0001) %MON trcstat_ptracer96_del2       =   8.0402011962893742E-04
(PID.TID 0000.0001) %MON trcstat_ptracer97_max        =   7.4102973877123892E+00
(PID.TID 0000.0001) %MON trcstat_ptracer97_min        =   1.3346593327551558E-08
(PID.TID 0000.0001) %MON trcstat_ptracer97_mean       =   4.7931574952759558E-03
(PID.TID 0000.0001) %MON trcstat_ptracer97_sd         =   5.0791108274313927E-02
(PID.TID 0000.0001) %MON trcstat_ptracer97_del2       =   8.0972364941965112E-04
(PID.TID 0000.0001) // =======================================================
(PID.TID 0000.0001) // End MONITOR ptracers field statistics
(PID.TID 0000.0001) // =======================================================
 Computing Diagnostic #    224  TRAC01       Counter:       1   Parms: SMR     MR      
 Computing Diagnostic #    236  TRAC02       Counter:       1   Parms: SMR     MR      
 Computing Diagnostic #    248  TRAC03       Counter:       1   Parms: SMR     MR      
 Computing Diagnostic #    260  TRAC04       Counter:       1   Parms: SMR     MR      
 Computing Diagnostic #    272  TRAC05       Counter:       1   Parms: SMR     MR      
 Computing Diagnostic #    284  TRAC06       Counter:       1   Parms: SMR     MR      
 Computing Diagnostic #    296  TRAC07       Counter:       1   Parms: SMR     MR      
 Computing Diagnostic #    308  TRAC08       Counter:       1   Parms: SMR     MR      
 Computing Diagnostic #    320  TRAC09       Counter:       1   Parms: SMR     MR      
 Computing Diagnostic #    332  TRAC10       Counter:       1   Parms: SMR     MR      
 Computing Diagnostic #    344  TRAC11       Counter:       1   Parms: SMR     MR      
 Computing Diagnostic #    356  TRAC12       Counter:       1   Parms: SMR     MR      
 Computing Diagnostic #    368  TRAC13       Counter:       1   Parms: SMR     MR      
 Computing Diagnostic #    380  TRAC14       Counter:       1   Parms: SMR     MR      
 Computing Diagnostic #    392  TRAC15       Counter:       1   Parms: SMR     MR      
 Computing Diagnostic #    404  TRAC16       Counter:       1   Parms: SMR     MR      
 Computing Diagnostic #    416  TRAC17       Counter:       1   Parms: SMR     MR      
 Computing Diagnostic #    428  TRAC18       Counter:       1   Parms: SMR     MR      
 Computing Diagnostic #    440  TRAC19       Counter:       1   Parms: SMR     MR      
 Computing Diagnostic #    452  TRAC20       Counter:       1   Parms: SMR     MR      
 Computing Diagnostic #    464  TRAC21       Counter:       1   Parms: SMR     MR      
 Computing Diagnostic #    476  TRAC22       Counter:       1   Parms: SMR     MR      
 Computing Diagnostic #    488  TRAC23       Counter:       1   Parms: SMR     MR      
 Computing Diagnostic #    500  TRAC24       Counter:       1   Parms: SMR     MR      
 Computing Diagnostic #    512  TRAC25       Counter:       1   Parms: SMR     MR      
 Computing Diagnostic #    524  TRAC26       Counter:       1   Parms: SMR     MR      
 Computing Diagnostic #    536  TRAC27       Counter:       1   Parms: SMR     MR      
 Computing Diagnostic #    548  TRAC28       Counter:       1   Parms: SMR     MR      
 Computing Diagnostic #    560  TRAC29       Counter:       1   Parms: SMR     MR      
 Computing Diagnostic #    572  TRAC30       Counter:       1   Parms: SMR     MR      
 Computing Diagnostic #    584  TRAC31       Counter:       1   Parms: SMR     MR      
 Computing Diagnostic #    596  TRAC32       Counter:       1   Parms: SMR     MR      
 Computing Diagnostic #    608  TRAC33       Counter:       1   Parms: SMR     MR      
 Computing Diagnostic #    620  TRAC34       Counter:       1   Parms: SMR     MR      
 Computing Diagnostic #    632  TRAC35       Counter:       1   Parms: SMR     MR      
 Computing Diagnostic #    644  TRAC36       Counter:       1   Parms: SMR     MR      
 Computing Diagnostic #    656  TRAC37       Counter:       1   Parms: SMR     MR      
 Computing Diagnostic #    668  TRAC38       Counter:       1   Parms: SMR     MR      
 Computing Diagnostic #    680  TRAC39       Counter:       1   Parms: SMR     MR      
 Computing Diagnostic #    692  TRAC40       Counter:       1   Parms: SMR     MR      
 Computing Diagnostic #    704  TRAC41       Counter:       1   Parms: SMR     MR      
 Computing Diagnostic #    716  TRAC42       Counter:       1   Parms: SMR     MR      
 Computing Diagnostic #    728  TRAC43       Counter:       1   Parms: SMR     MR      
 Computing Diagnostic #    740  TRAC44       Counter:       1   Parms: SMR     MR      
 Computing Diagnostic #    752  TRAC45       Counter:       1   Parms: SMR     MR      
 Computing Diagnostic #    764  TRAC46       Counter:       1   Parms: SMR     MR      
 Computing Diagnostic #    776  TRAC47       Counter:       1   Parms: SMR     MR      
 Computing Diagnostic #    788  TRAC48       Counter:       1   Parms: SMR     MR      
 Computing Diagnostic #    800  TRAC49       Counter:       1   Parms: SMR     MR      
 Computing Diagnostic #    812  TRAC50       Counter:       1   Parms: SMR     MR      
 Computing Diagnostic #    824  TRAC51       Counter:       1   Parms: SMR     MR      
 Computing Diagnostic #    836  TRAC52       Counter:       1   Parms: SMR     MR      
 Computing Diagnostic #    848  TRAC53       Counter:       1   Parms: SMR     MR      
 Computing Diagnostic #    860  TRAC54       Counter:       1   Parms: SMR     MR      
 Computing Diagnostic #    872  TRAC55       Counter:       1   Parms: SMR     MR      
 Computing Diagnostic #    884  TRAC56       Counter:       1   Parms: SMR     MR      
 Computing Diagnostic #    896  TRAC57       Counter:       1   Parms: SMR     MR      
 Computing Diagnostic #    908  TRAC58       Counter:       1   Parms: SMR     MR      
 Computing Diagnostic #    920  TRAC59       Counter:       1   Parms: SMR     MR      
 Computing Diagnostic #    932  TRAC60       Counter:       1   Parms: SMR     MR      
 Computing Diagnostic #    944  TRAC61       Counter:       1   Parms: SMR     MR      
 Computing Diagnostic #    956  TRAC62       Counter:       1   Parms: SMR     MR      
 Computing Diagnostic #    968  TRAC63       Counter:       1   Parms: SMR     MR      
 Computing Diagnostic #    980  TRAC64       Counter:       1   Parms: SMR     MR      
 Computing Diagnostic #    992  TRAC65       Counter:       1   Parms: SMR     MR      
 Computing Diagnostic #   1004  TRAC66       Counter:       1   Parms: SMR     MR      
 Computing Diagnostic #   1016  TRAC67       Counter:       1   Parms: SMR     MR      
 Computing Diagnostic #   1028  TRAC68       Counter:       1   Parms: SMR     MR      
 Computing Diagnostic #   1040  TRAC69       Counter:       1   Parms: SMR     MR      
 Computing Diagnostic #   1052  TRAC70       Counter:       1   Parms: SMR     MR      
 Computing Diagnostic #   1064  TRAC71       Counter:       1   Parms: SMR     MR      
 Computing Diagnostic #   1076  TRAC72       Counter:       1   Parms: SMR     MR      
 Computing Diagnostic #   1088  TRAC73       Counter:       1   Parms: SMR     MR      
 Computing Diagnostic #   1100  TRAC74       Counter:       1   Parms: SMR     MR      
 Computing Diagnostic #   1112  TRAC75       Counter:       1   Parms: SMR     MR      
 Computing Diagnostic #   1124  TRAC76       Counter:       1   Parms: SMR     MR      
 Computing Diagnostic #   1136  TRAC77       Counter:       1   Parms: SMR     MR      
 Computing Diagnostic #   1148  TRAC78       Counter:       1   Parms: SMR     MR      
 Computing Diagnostic #   1160  TRAC79       Counter:       1   Parms: SMR     MR      
 Computing Diagnostic #   1172  TRAC80       Counter:       1   Parms: SMR     MR      
 Computing Diagnostic #   1184  TRAC81       Counter:       1   Parms: SMR     MR      
 Computing Diagnostic #   1196  TRAC82       Counter:       1   Parms: SMR     MR      
 Computing Diagnostic #   1208  TRAC83       Counter:       1   Parms: SMR     MR      
 Computing Diagnostic #   1220  TRAC84       Counter:       1   Parms: SMR     MR      
 Computing Diagnostic #   1232  TRAC85       Counter:       1   Parms: SMR     MR      
 Computing Diagnostic #   1244  TRAC86       Counter:       1   Parms: SMR     MR      
 Computing Diagnostic #   1256  TRAC87       Counter:       1   Parms: SMR     MR      
 Computing Diagnostic #   1268  TRAC88       Counter:       1   Parms: SMR     MR      
 Computing Diagnostic #   1280  TRAC89       Counter:       1   Parms: SMR     MR      
 Computing Diagnostic #   1292  TRAC90       Counter:       1   Parms: SMR     MR      
 Computing Diagnostic #   1304  TRAC91       Counter:       1   Parms: SMR     MR      
 Computing Diagnostic #   1316  TRAC92       Counter:       1   Parms: SMR     MR      
 Computing Diagnostic #   1328  TRAC93       Counter:       1   Parms: SMR     MR      
 Computing Diagnostic #   1340  TRAC94       Counter:       1   Parms: SMR     MR      
 Computing Diagnostic #   1352  TRAC95       Counter:       1   Parms: SMR     MR      
 Computing Diagnostic #   1364  TRAC96       Counter:       1   Parms: SMR     MR      
 Computing Diagnostic #   1376  TRAC97       Counter:       1   Parms: SMR     MR      
 Computing Diagnostic #   1393  PAR01        Counter:       8   Parms: SM P    MR      
 Computing Diagnostic #   1400  DIC_c01      Counter:       4   Parms: SM P    MR      
 Computing Diagnostic #   1411  DIC_c02      Counter:       4   Parms: SM P    MR      
 Computing Diagnostic #   1401  c01_DOC      Counter:       4   Parms: SM P    MR      
 Computing Diagnostic #   1412  c02_DOC      Counter:       4   Parms: SM P    MR      
 Computing Diagnostic #   1402  c01_POC      Counter:       4   Parms: SM P    MR      
 Computing Diagnostic #   1413  c02_POC      Counter:       4   Parms: SM P    MR      
 Computing Diagnostic #   1392  PARF         Counter:       4   Parms: SM P    MR      
 Computing Diagnostic #   1389  atten        Counter:       4   Parms: SM P    MR      
 Computing Diagnostic #   1391  surfPAR      Counter:       4   Parms: SM P    MR      
 Computing Diagnostic #   1390  exfPAR       Counter:       1   Parms: SM P    MR      
 Computing Diagnostic #   1394  limn01       Counter:       4   Parms: SM P    MR      
 Computing Diagnostic #   1395  limp01       Counter:       4   Parms: SM P    MR      
 Computing Diagnostic #   1396  limsi01      Counter:       4   Parms: SM P    MR      
 Computing Diagnostic #   1397  limfe01      Counter:       4   Parms: SM P    MR      
 Computing Diagnostic #   1398  limI01       Counter:       4   Parms: SM P    MR      
 Computing Diagnostic #   1399  limT01       Counter:       4   Parms: SM P    MR      
 Computing Diagnostic #   1403  c01_c        Counter:       4   Parms: SM P    MR      
 Computing Diagnostic #   1414  c02_c        Counter:       4   Parms: SM P    MR      
 Computing Diagnostic #   1426  c_c03        Counter:       4   Parms: SM P    MR      
 Computing Diagnostic #   1437  c_c04        Counter:       4   Parms: SM P    MR      
 Computing Diagnostic #   2274  c_DOC        Counter:       4   Parms: SM P    MR      
 Computing Diagnostic #   2275  c_POC        Counter:       4   Parms: SM P    MR      
 Computing Diagnostic #   2276  c_PIC        Counter:       4   Parms: SM P    MR      
 Computing Diagnostic #   2277  n_DON        Counter:       4   Parms: SM P    MR      
 Computing Diagnostic #   2278  n_PON        Counter:       4   Parms: SM P    MR      
 Computing Diagnostic #   2279  p_DOP        Counter:       4   Parms: SM P    MR      
 Computing Diagnostic #   2280  p_POP        Counter:       4   Parms: SM P    MR      
(PID.TID 0000.0001) // =======================================================
(PID.TID 0000.0001) // Begin MONITOR EXF statistics
(PID.TID 0000.0001) // =======================================================
(PID.TID 0000.0001) %MON exf_tsnumber                 =               5644801
(PID.TID 0000.0001) %MON exf_time_sec                 =   2.4385540320000000E+11
(PID.TID 0000.0001) %MON exf_ustress_max              =   0.0000000000000000E+00
(PID.TID 0000.0001) %MON exf_ustress_min              =   0.0000000000000000E+00
(PID.TID 0000.0001) %MON exf_ustress_mean             =   0.0000000000000000E+00
(PID.TID 0000.0001) %MON exf_ustress_sd               =   0.0000000000000000E+00
(PID.TID 0000.0001) %MON exf_ustress_del2             =   0.0000000000000000E+00
(PID.TID 0000.0001) %MON exf_vstress_max              =   0.0000000000000000E+00
(PID.TID 0000.0001) %MON exf_vstress_min              =   0.0000000000000000E+00
(PID.TID 0000.0001) %MON exf_vstress_mean             =   0.0000000000000000E+00
(PID.TID 0000.0001) %MON exf_vstress_sd               =   0.0000000000000000E+00
(PID.TID 0000.0001) %MON exf_vstress_del2             =   0.0000000000000000E+00
(PID.TID 0000.0001) %MON exf_hflux_max                =   0.0000000000000000E+00
(PID.TID 0000.0001) %MON exf_hflux_min                =   0.0000000000000000E+00
(PID.TID 0000.0001) %MON exf_hflux_mean               =   0.0000000000000000E+00
(PID.TID 0000.0001) %MON exf_hflux_sd                 =   0.0000000000000000E+00
(PID.TID 0000.0001) %MON exf_hflux_del2               =   0.0000000000000000E+00
(PID.TID 0000.0001) %MON exf_sflux_max                =   0.0000000000000000E+00
(PID.TID 0000.0001) %MON exf_sflux_min                =   0.0000000000000000E+00
(PID.TID 0000.0001) %MON exf_sflux_mean               =   0.0000000000000000E+00
(PID.TID 0000.0001) %MON exf_sflux_sd                 =   0.0000000000000000E+00
(PID.TID 0000.0001) %MON exf_sflux_del2               =   0.0000000000000000E+00
(PID.TID 0000.0001) %MON exf_uwind_max                =   0.0000000000000000E+00
(PID.TID 0000.0001) %MON exf_uwind_min                =   0.0000000000000000E+00
(PID.TID 0000.0001) %MON exf_uwind_mean               =   0.0000000000000000E+00
(PID.TID 0000.0001) %MON exf_uwind_sd                 =   0.0000000000000000E+00
(PID.TID 0000.0001) %MON exf_uwind_del2               =   0.0000000000000000E+00
(PID.TID 0000.0001) %MON exf_vwind_max                =   0.0000000000000000E+00
(PID.TID 0000.0001) %MON exf_vwind_min                =   0.0000000000000000E+00
(PID.TID 0000.0001) %MON exf_vwind_mean               =   0.0000000000000000E+00
(PID.TID 0000.0001) %MON exf_vwind_sd                 =   0.0000000000000000E+00
(PID.TID 0000.0001) %MON exf_vwind_del2               =   0.0000000000000000E+00
(PID.TID 0000.0001) %MON exf_wspeed_max               =   0.0000000000000000E+00
(PID.TID 0000.0001) %MON exf_wspeed_min               =   0.0000000000000000E+00
(PID.TID 0000.0001) %MON exf_wspeed_mean              =   0.0000000000000000E+00
(PID.TID 0000.0001) %MON exf_wspeed_sd                =   0.0000000000000000E+00
(PID.TID 0000.0001) %MON exf_wspeed_del2              =   0.0000000000000000E+00
(PID.TID 0000.0001) %MON exf_evap_max                 =   0.0000000000000000E+00
(PID.TID 0000.0001) %MON exf_evap_min                 =   0.0000000000000000E+00
(PID.TID 0000.0001) %MON exf_evap_mean                =   0.0000000000000000E+00
(PID.TID 0000.0001) %MON exf_evap_sd                  =   0.0000000000000000E+00
(PID.TID 0000.0001) %MON exf_evap_del2                =   0.0000000000000000E+00
(PID.TID 0000.0001) // =======================================================
(PID.TID 0000.0001) // End MONITOR EXF statistics
(PID.TID 0000.0001) // =======================================================
 exf          12           1  0.48333333333333334       0.51666666666666661     
 exf          12           1  0.48333333333333334       0.51666666666666661     
 exf          12           1  0.48333333333333334       0.51666666666666661     
 cg2d: Sum(rhs),rhsMax =  -6.05039573997601E-07  7.54809699793438E+00
(PID.TID 0000.0001)      cg2d_init_res =   1.60348798167039E-02
(PID.TID 0000.0001)      cg2d_iters(min,last) =      -1      22
(PID.TID 0000.0001)      cg2d_last_res =   7.24977513643558E-14
 PAR           1   0.0000000000000000        0.0000000000000000        1.0000000000000000     
 PAR           2   0.0000000000000000        0.0000000000000000        1.4000000000000001     
 PAR           3   0.0000000000000000        0.0000000000000000        2.0000000000000000     
 PAR           4   0.0000000000000000        0.0000000000000000        2.8000000000000003     
 PAR           5   0.0000000000000000        0.0000000000000000        3.8000000000000003     
 PAR           6   0.0000000000000000        0.0000000000000000        4.7999999999999998     
 PAR           7   0.0000000000000000        0.0000000000000000        5.7999999999999998     
 PAR           8   0.0000000000000000        0.0000000000000000        6.7999999999999998     
 PAR           9   0.0000000000000000        0.0000000000000000        7.7999999999999998     
 PAR          10   0.0000000000000000        0.0000000000000000        8.8000000000000007     
 PAR          11   0.0000000000000000        0.0000000000000000        9.8000000000000007     
 PAR          12   0.0000000000000000        0.0000000000000000        10.800000000000001     
 PAR          13   0.0000000000000000        0.0000000000000000        11.800000000000001     
 PAR          14   0.0000000000000000        0.0000000000000000        12.800000000000001     
 PAR          15   0.0000000000000000        0.0000000000000000        13.800000000000001     
 fe   0.0000000000000000     
 fe   0.0000000000000000        0.0000000000000000     
 PAR           1   0.0000000000000000        0.0000000000000000        1.0000000000000000     
 PAR           2   0.0000000000000000        0.0000000000000000        1.4000000000000001     
 PAR           3   0.0000000000000000        0.0000000000000000        2.0000000000000000     
 PAR           4   0.0000000000000000        0.0000000000000000        2.8000000000000003     
 PAR           5   0.0000000000000000        0.0000000000000000        3.8000000000000003     
 PAR           6   0.0000000000000000        0.0000000000000000        4.7999999999999998     
 PAR           7   0.0000000000000000        0.0000000000000000        5.7999999999999998     
 PAR           8   0.0000000000000000        0.0000000000000000        6.7999999999999998     
 PAR           9   0.0000000000000000        0.0000000000000000        7.7999999999999998     
 PAR          10   0.0000000000000000        0.0000000000000000        8.8000000000000007     
 PAR          11   0.0000000000000000        0.0000000000000000        9.8000000000000007     
 PAR          12   0.0000000000000000        0.0000000000000000        10.800000000000001     
 PAR          13   0.0000000000000000        0.0000000000000000        11.800000000000001     
 PAR          14   0.0000000000000000        0.0000000000000000        12.800000000000001     
 PAR          15   0.0000000000000000        0.0000000000000000        13.800000000000001     
 fe   0.0000000000000000     
 fe   0.0000000000000000        0.0000000000000000     
 PAR           1   0.0000000000000000        0.0000000000000000        1.0000000000000000     
 PAR           2   0.0000000000000000        0.0000000000000000        1.4000000000000001     
 PAR           3   0.0000000000000000        0.0000000000000000        2.0000000000000000     
 PAR           4   0.0000000000000000        0.0000000000000000        2.8000000000000003     
 PAR           5   0.0000000000000000        0.0000000000000000        3.8000000000000003     
 PAR           6   0.0000000000000000        0.0000000000000000        4.7999999999999998     
 PAR           7   0.0000000000000000        0.0000000000000000        5.7999999999999998     
 PAR           8   0.0000000000000000        0.0000000000000000        6.7999999999999998     
 PAR           9   0.0000000000000000        0.0000000000000000        7.7999999999999998     
 PAR          10   0.0000000000000000        0.0000000000000000        8.8000000000000007     
 PAR          11   0.0000000000000000        0.0000000000000000        9.8000000000000007     
 PAR          12   0.0000000000000000        0.0000000000000000        10.800000000000001     
 PAR          13   0.0000000000000000        0.0000000000000000        11.800000000000001     
 PAR          14   0.0000000000000000        0.0000000000000000        12.800000000000001     
 PAR          15   0.0000000000000000        0.0000000000000000        13.800000000000001     
 fe   0.0000000000000000     
 fe   0.0000000000000000        0.0000000000000000     
 PAR           1   0.0000000000000000        0.0000000000000000        1.0000000000000000     
 PAR           2   0.0000000000000000        0.0000000000000000        1.4000000000000001     
 PAR           3   0.0000000000000000        0.0000000000000000        2.0000000000000000     
 PAR           4   0.0000000000000000        0.0000000000000000        2.8000000000000003     
 PAR           5   0.0000000000000000        0.0000000000000000        3.8000000000000003     
 PAR           6   0.0000000000000000        0.0000000000000000        4.7999999999999998     
 PAR           7   0.0000000000000000        0.0000000000000000        5.7999999999999998     
 PAR           8   0.0000000000000000        0.0000000000000000        6.7999999999999998     
 PAR           9   0.0000000000000000        0.0000000000000000        7.7999999999999998     
 PAR          10   0.0000000000000000        0.0000000000000000        8.8000000000000007     
 PAR          11   0.0000000000000000        0.0000000000000000        9.8000000000000007     
 PAR          12   0.0000000000000000        0.0000000000000000        10.800000000000001     
 PAR          13   0.0000000000000000        0.0000000000000000        11.800000000000001     
 PAR          14   0.0000000000000000        0.0000000000000000        12.800000000000001     
 PAR          15   0.0000000000000000        0.0000000000000000        13.800000000000001     
 fe   0.0000000000000000     
 fe   0.0000000000000000        0.0000000000000000     
 PAR           1   0.0000000000000000        0.0000000000000000        1.0000000000000000     
 PAR           2   0.0000000000000000        0.0000000000000000        1.4000000000000001     
 PAR           3   0.0000000000000000        0.0000000000000000        2.0000000000000000     
 PAR           4   0.0000000000000000        0.0000000000000000        2.8000000000000003     
 PAR           5   0.0000000000000000        0.0000000000000000        3.8000000000000003     
 PAR           6   0.0000000000000000        0.0000000000000000        4.7999999999999998     
 PAR           7   0.0000000000000000        0.0000000000000000        5.7999999999999998     
 PAR           8   0.0000000000000000        0.0000000000000000        6.7999999999999998     
 PAR           9   0.0000000000000000        0.0000000000000000        7.7999999999999998     
 PAR          10   0.0000000000000000        0.0000000000000000        8.8000000000000007     
 PAR          11   0.0000000000000000        0.0000000000000000        9.8000000000000007     
 PAR          12   0.0000000000000000        0.0000000000000000        10.800000000000001     
 PAR          13   0.0000000000000000        0.0000000000000000        11.800000000000001     
 PAR          14   0.0000000000000000        0.0000000000000000        12.800000000000001     
 PAR          15   0.0000000000000000        0.0000000000000000        13.800000000000001     
 fe   0.0000000000000000     
 fe   0.0000000000000000        0.0000000000000000     
 PAR           1   0.0000000000000000        0.0000000000000000        1.0000000000000000     
 PAR           2   0.0000000000000000        0.0000000000000000        1.4000000000000001     
 PAR           3   0.0000000000000000        0.0000000000000000        2.0000000000000000     
 PAR           4   0.0000000000000000        0.0000000000000000        2.8000000000000003     
 PAR           5   0.0000000000000000        0.0000000000000000        3.8000000000000003     
 PAR           6   0.0000000000000000        0.0000000000000000        4.7999999999999998     
 PAR           7   0.0000000000000000        0.0000000000000000        5.7999999999999998     
 PAR           8   0.0000000000000000        0.0000000000000000        6.7999999999999998     
 PAR           9   0.0000000000000000        0.0000000000000000        7.7999999999999998     
 PAR          10   0.0000000000000000        0.0000000000000000        8.8000000000000007     
 PAR          11   0.0000000000000000        0.0000000000000000        9.8000000000000007     
 PAR          12   0.0000000000000000        0.0000000000000000        10.800000000000001     
 PAR          13   0.0000000000000000        0.0000000000000000        11.800000000000001     
 PAR          14   0.0000000000000000        0.0000000000000000        12.800000000000001     
 PAR          15   0.0000000000000000        0.0000000000000000        13.800000000000001     
 fe   0.0000000000000000     
 fe   0.0000000000000000        0.0000000000000000     
 PAR           1   0.0000000000000000        0.0000000000000000        1.0000000000000000     
 PAR           2   0.0000000000000000        0.0000000000000000        1.4000000000000001     
 PAR           3   0.0000000000000000        0.0000000000000000        2.0000000000000000     
 PAR           4   0.0000000000000000        0.0000000000000000        2.8000000000000003     
 PAR           5   0.0000000000000000        0.0000000000000000        3.8000000000000003     
 PAR           6   0.0000000000000000        0.0000000000000000        4.7999999999999998     
 PAR           7   0.0000000000000000        0.0000000000000000        5.7999999999999998     
 PAR           8   0.0000000000000000        0.0000000000000000        6.7999999999999998     
 PAR           9   0.0000000000000000        0.0000000000000000        7.7999999999999998     
 PAR          10   0.0000000000000000        0.0000000000000000        8.8000000000000007     
 PAR          11   0.0000000000000000        0.0000000000000000        9.8000000000000007     
 PAR          12   0.0000000000000000        0.0000000000000000        10.800000000000001     
 PAR          13   0.0000000000000000        0.0000000000000000        11.800000000000001     
 PAR          14   0.0000000000000000        0.0000000000000000        12.800000000000001     
 PAR          15   0.0000000000000000        0.0000000000000000        13.800000000000001     
 fe   0.0000000000000000     
 fe   0.0000000000000000        0.0000000000000000     
 PAR           1   0.0000000000000000        0.0000000000000000        1.0000000000000000     
 PAR           2   0.0000000000000000        0.0000000000000000        1.4000000000000001     
 PAR           3   0.0000000000000000        0.0000000000000000        2.0000000000000000     
 PAR           4   0.0000000000000000        0.0000000000000000        2.8000000000000003     
 PAR           5   0.0000000000000000        0.0000000000000000        3.8000000000000003     
 PAR           6   0.0000000000000000        0.0000000000000000        4.7999999999999998     
 PAR           7   0.0000000000000000        0.0000000000000000        5.7999999999999998     
 PAR           8   0.0000000000000000        0.0000000000000000        6.7999999999999998     
 PAR           9   0.0000000000000000        0.0000000000000000        7.7999999999999998     
 PAR          10   0.0000000000000000        0.0000000000000000        8.8000000000000007     
 PAR          11   0.0000000000000000        0.0000000000000000        9.8000000000000007     
 PAR          12   0.0000000000000000        0.0000000000000000        10.800000000000001     
 PAR          13   0.0000000000000000        0.0000000000000000        11.800000000000001     
 PAR          14   0.0000000000000000        0.0000000000000000        12.800000000000001     
 PAR          15   0.0000000000000000        0.0000000000000000        13.800000000000001     
 fe   0.0000000000000000     
 fe   0.0000000000000000        0.0000000000000000     
(PID.TID 0000.0001) // =======================================================
(PID.TID 0000.0001) // Begin MONITOR dynamic field statistics
(PID.TID 0000.0001) // =======================================================
(PID.TID 0000.0001) %MON time_tsnumber                =               5644802
(PID.TID 0000.0001) %MON time_secondsf                =   2.4385544640000000E+11
(PID.TID 0000.0001) %MON dynstat_eta_max              =   9.3669450902032791E-01
(PID.TID 0000.0001) %MON dynstat_eta_min              =  -1.7304083898030715E+00
(PID.TID 0000.0001) %MON dynstat_eta_mean             =   1.6246261649086755E-10
(PID.TID 0000.0001) %MON dynstat_eta_sd               =   6.5170215564504785E-01
(PID.TID 0000.0001) %MON dynstat_eta_del2             =   9.2948657481454404E-04
(PID.TID 0000.0001) %MON dynstat_uvel_max             =   1.5520061118668546E-01
(PID.TID 0000.0001) %MON dynstat_uvel_min             =  -1.8455959946386183E-01
(PID.TID 0000.0001) %MON dynstat_uvel_mean            =   2.9500067212832617E-03
(PID.TID 0000.0001) %MON dynstat_uvel_sd              =   1.3887241721064226E-02
(PID.TID 0000.0001) %MON dynstat_uvel_del2            =   3.8119004119820145E-05
(PID.TID 0000.0001) %MON dynstat_vvel_max             =   1.1194223105631688E-01
(PID.TID 0000.0001) %MON dynstat_vvel_min             =  -1.5109286090867335E-01
(PID.TID 0000.0001) %MON dynstat_vvel_mean            =  -1.9137717678909943E-04
(PID.TID 0000.0001) %MON dynstat_vvel_sd              =   6.3553882243076185E-03
(PID.TID 0000.0001) %MON dynstat_vvel_del2            =   2.6608039254203498E-05
(PID.TID 0000.0001) %MON dynstat_wvel_max             =   4.3039277392184573E-05
(PID.TID 0000.0001) %MON dynstat_wvel_min             =  -6.4954183401629294E-05
(PID.TID 0000.0001) %MON dynstat_wvel_mean            =   1.6188913988088438E-22
(PID.TID 0000.0001) %MON dynstat_wvel_sd              =   1.9029174080860410E-06
(PID.TID 0000.0001) %MON dynstat_wvel_del2            =   1.3087649862558550E-08
(PID.TID 0000.0001) %MON dynstat_theta_max            =   2.9956169503656170E+01
(PID.TID 0000.0001) %MON dynstat_theta_min            =  -2.1380105738435664E+00
(PID.TID 0000.0001) %MON dynstat_theta_mean           =   3.7551993238610168E+00
(PID.TID 0000.0001) %MON dynstat_theta_sd             =   5.1498438038028329E+00
(PID.TID 0000.0001) %MON dynstat_theta_del2           =   2.2475610759997515E-03
(PID.TID 0000.0001) %MON dynstat_salt_max             =   3.7553576011854339E+01
(PID.TID 0000.0001) %MON dynstat_salt_min             =   3.1355298076470451E+01
(PID.TID 0000.0001) %MON dynstat_salt_mean            =   3.4543283111766534E+01
(PID.TID 0000.0001) %MON dynstat_salt_sd              =   3.5868308299669877E-01
(PID.TID 0000.0001) %MON dynstat_salt_del2            =   3.8156578764204891E-04
(PID.TID 0000.0001) %MON forcing_qnet_max             =   4.5165532073974612E+02
(PID.TID 0000.0001) %MON forcing_qnet_min             =  -2.1277729593912761E+02
(PID.TID 0000.0001) %MON forcing_qnet_mean            =  -1.7629331279213257E+01
(PID.TID 0000.0001) %MON forcing_qnet_sd              =   1.1589696557540931E+02
(PID.TID 0000.0001) %MON forcing_qnet_del2            =   2.7311634019843828E-01
(PID.TID 0000.0001) %MON forcing_qsw_max              =   0.0000000000000000E+00
(PID.TID 0000.0001) %MON forcing_qsw_min              =   0.0000000000000000E+00
(PID.TID 0000.0001) %MON forcing_qsw_mean             =   0.0000000000000000E+00
(PID.TID 0000.0001) %MON forcing_qsw_sd               =   0.0000000000000000E+00
(PID.TID 0000.0001) %MON forcing_qsw_del2             =   0.0000000000000000E+00
(PID.TID 0000.0001) %MON forcing_empmr_max            =   6.9206222512718796E-05
(PID.TID 0000.0001) %MON forcing_empmr_min            =  -1.5544422772961752E-04
(PID.TID 0000.0001) %MON forcing_empmr_mean           =   1.2460352661810301E-14
(PID.TID 0000.0001) %MON forcing_empmr_sd             =   2.4700019777611149E-05
(PID.TID 0000.0001) %MON forcing_empmr_del2           =   1.1591736879228609E-07
(PID.TID 0000.0001) %MON forcing_fu_max               =   2.6912787457307180E-01
(PID.TID 0000.0001) %MON forcing_fu_min               =  -1.5720446159442264E-01
(PID.TID 0000.0001) %MON forcing_fu_mean              =   1.7822779918771067E-02
(PID.TID 0000.0001) %MON forcing_fu_sd                =   8.9611665321265493E-02
(PID.TID 0000.0001) %MON forcing_fu_del2              =   2.4809007353166049E-04
(PID.TID 0000.0001) %MON forcing_fv_max               =   1.9778054629762967E-01
(PID.TID 0000.0001) %MON forcing_fv_min               =  -1.5953998118638993E-01
(PID.TID 0000.0001) %MON forcing_fv_mean              =  -6.4319072438235514E-03
(PID.TID 0000.0001) %MON forcing_fv_sd                =   4.4324355939289704E-02
(PID.TID 0000.0001) %MON forcing_fv_del2              =   1.7988590232348149E-04
(PID.TID 0000.0001) %MON advcfl_uvel_max              =   4.0078918420628079E-02
(PID.TID 0000.0001) %MON advcfl_vvel_max              =   2.0874609519219333E-02
(PID.TID 0000.0001) %MON advcfl_wvel_max              =   1.3137738556176065E-02
(PID.TID 0000.0001) %MON advcfl_W_hf_max              =   1.5483763298350363E-02
(PID.TID 0000.0001) %MON pe_b_mean                    =   5.8626547378004892E-04
(PID.TID 0000.0001) %MON ke_max                       =   1.7876070038757994E-02
(PID.TID 0000.0001) %MON ke_mean                      =   1.1148375363651550E-04
(PID.TID 0000.0001) %MON ke_vol                       =   1.1739855207380157E+18
(PID.TID 0000.0001) %MON vort_r_min                   =  -5.5554520820579121E-07
(PID.TID 0000.0001) %MON vort_r_max                   =   6.2137160933136408E-07
(PID.TID 0000.0001) %MON vort_a_mean                  =  -2.5798915502264682E-05
(PID.TID 0000.0001) %MON vort_a_sd                    =   7.3558772929110760E-05
(PID.TID 0000.0001) %MON vort_p_mean                  =  -3.0020960747216349E-05
(PID.TID 0000.0001) %MON vort_p_sd                    =   9.8090577523159142E-05
(PID.TID 0000.0001) %MON surfExpan_theta_mean         =  -2.7138055601395872E-07
(PID.TID 0000.0001) %MON surfExpan_salt_mean          =   2.5216770616800624E-08
(PID.TID 0000.0001) // =======================================================
(PID.TID 0000.0001) // End MONITOR dynamic field statistics
(PID.TID 0000.0001) // =======================================================
(PID.TID 0000.0001) // =======================================================
(PID.TID 0000.0001) // Begin MONITOR ptracer field statistics
(PID.TID 0000.0001) // =======================================================
(PID.TID 0000.0001) %MON trcstat_ptracer01_max        =   2.0000506341811929E+03
(PID.TID 0000.0001) %MON trcstat_ptracer01_min        =   1.9969116075215732E+03
(PID.TID 0000.0001) %MON trcstat_ptracer01_mean       =   1.9999952480439704E+03
(PID.TID 0000.0001) %MON trcstat_ptracer01_sd         =   5.9300786416063601E-02
(PID.TID 0000.0001) %MON trcstat_ptracer01_del2       =   3.7736650668475288E-04
(PID.TID 0000.0001) %MON trcstat_ptracer02_max        =   3.1092725909520869E-01
(PID.TID 0000.0001) %MON trcstat_ptracer02_min        =   1.0247162355482428E-07
(PID.TID 0000.0001) %MON trcstat_ptracer02_mean       =   3.7708203886356140E-03
(PID.TID 0000.0001) %MON trcstat_ptracer02_sd         =   2.0060910129145001E-02
(PID.TID 0000.0001) %MON trcstat_ptracer02_del2       =   5.6194839332403910E-05
(PID.TID 0000.0001) %MON trcstat_ptracer03_max        =   2.5336140382663235E+00
(PID.TID 0000.0001) %MON trcstat_ptracer03_min        =   2.8110564838397869E-06
(PID.TID 0000.0001) %MON trcstat_ptracer03_mean       =   3.0895065429485388E-02
(PID.TID 0000.0001) %MON trcstat_ptracer03_sd         =   9.0923399000259725E-02
(PID.TID 0000.0001) %MON trcstat_ptracer03_del2       =   1.2209336228117545E-04
(PID.TID 0000.0001) %MON trcstat_ptracer04_max        =   5.5518609626334630E+01
(PID.TID 0000.0001) %MON trcstat_ptracer04_min        =   3.0218833638846347E-04
(PID.TID 0000.0001) %MON trcstat_ptracer04_mean       =   3.0321072472675006E+01
(PID.TID 0000.0001) %MON trcstat_ptracer04_sd         =   9.3055126833476205E+00
(PID.TID 0000.0001) %MON trcstat_ptracer04_del2       =   7.1741159610355073E-03
(PID.TID 0000.0001) %MON trcstat_ptracer05_max        =   3.4906100214663853E+00
(PID.TID 0000.0001) %MON trcstat_ptracer05_min        =   4.7297976361622647E-02
(PID.TID 0000.0001) %MON trcstat_ptracer05_mean       =   2.1106222144660940E+00
(PID.TID 0000.0001) %MON trcstat_ptracer05_sd         =   6.4916243960185516E-01
(PID.TID 0000.0001) %MON trcstat_ptracer05_del2       =   3.7259729570641206E-04
(PID.TID 0000.0001) %MON trcstat_ptracer06_max        =   1.8842071678350788E+02
(PID.TID 0000.0001) %MON trcstat_ptracer06_min        =   4.2936396880754324E-01
(PID.TID 0000.0001) %MON trcstat_ptracer06_mean       =   8.3739739447781290E+01
(PID.TID 0000.0001) %MON trcstat_ptracer06_sd         =   4.9672435712918976E+01
(PID.TID 0000.0001) %MON trcstat_ptracer06_del2       =   1.6779647627204658E-02
(PID.TID 0000.0001) %MON trcstat_ptracer07_max        =   1.3877610522073053E-03
(PID.TID 0000.0001) %MON trcstat_ptracer07_min        =   4.0339575232651052E-06
(PID.TID 0000.0001) %MON trcstat_ptracer07_mean       =   3.2964735848922954E-04
(PID.TID 0000.0001) %MON trcstat_ptracer07_sd         =   2.1707226730134296E-04
(PID.TID 0000.0001) %MON trcstat_ptracer07_del2       =   2.1212435571878013E-07
(PID.TID 0000.0001) %MON trcstat_ptracer08_max        =   4.0149120701306549E+00
(PID.TID 0000.0001) %MON trcstat_ptracer08_min        =   7.2970676218600253E-09
(PID.TID 0000.0001) %MON trcstat_ptracer08_mean       =   2.7362483413093993E-03
(PID.TID 0000.0001) %MON trcstat_ptracer08_sd         =   2.8275432952523858E-02
(PID.TID 0000.0001) %MON trcstat_ptracer08_del2       =   4.3680102233213528E-04
(PID.TID 0000.0001) %MON trcstat_ptracer09_max        =   2.0459260037026294E+00
(PID.TID 0000.0001) %MON trcstat_ptracer09_min        =  -2.5489792257328129E-03
(PID.TID 0000.0001) %MON trcstat_ptracer09_mean       =   1.7314232351934182E-02
(PID.TID 0000.0001) %MON trcstat_ptracer09_sd         =   1.0962189645118108E-01
(PID.TID 0000.0001) %MON trcstat_ptracer09_del2       =   3.1812150652389074E-04
(PID.TID 0000.0001) %MON trcstat_ptracer10_max        =   1.2787037523141434E-01
(PID.TID 0000.0001) %MON trcstat_ptracer10_min        =  -1.5931120160830081E-04
(PID.TID 0000.0001) %MON trcstat_ptracer10_mean       =   1.0821395219958864E-03
(PID.TID 0000.0001) %MON trcstat_ptracer10_sd         =   6.8513685281988172E-03
(PID.TID 0000.0001) %MON trcstat_ptracer10_del2       =   1.9882594157743171E-05
(PID.TID 0000.0001) %MON trcstat_ptracer11_max        =   7.7158288523725753E-05
(PID.TID 0000.0001) %MON trcstat_ptracer11_min        =  -1.3650265906118876E-07
(PID.TID 0000.0001) %MON trcstat_ptracer11_mean       =   3.0547366833823154E-07
(PID.TID 0000.0001) %MON trcstat_ptracer11_sd         =   2.1333130768815554E-06
(PID.TID 0000.0001) %MON trcstat_ptracer11_del2       =   8.1541285038682714E-09
(PID.TID 0000.0001) %MON trcstat_ptracer12_max        =   3.5651254358081701E+00
(PID.TID 0000.0001) %MON trcstat_ptracer12_min        =   3.9960490916251418E-09
(PID.TID 0000.0001) %MON trcstat_ptracer12_mean       =   1.6905938248652824E-03
(PID.TID 0000.0001) %MON trcstat_ptracer12_sd         =   2.0033440900463332E-02
(PID.TID 0000.0001) %MON trcstat_ptracer12_del2       =   3.6849676872791884E-04
(PID.TID 0000.0001) %MON trcstat_ptracer13_max        =   2.9624783148365683E+00
(PID.TID 0000.0001) %MON trcstat_ptracer13_min        =   1.3416324298028019E-06
(PID.TID 0000.0001) %MON trcstat_ptracer13_mean       =   2.6791347519444116E-02
(PID.TID 0000.0001) %MON trcstat_ptracer13_sd         =   5.7781359045465774E-02
(PID.TID 0000.0001) %MON trcstat_ptracer13_del2       =   2.6580561700308180E-04
(PID.TID 0000.0001) %MON trcstat_ptracer14_max        =   1.8515489467728552E-01
(PID.TID 0000.0001) %MON trcstat_ptracer14_min        =   8.3852026862675122E-08
(PID.TID 0000.0001) %MON trcstat_ptracer14_mean       =   1.6744592199652573E-03
(PID.TID 0000.0001) %MON trcstat_ptracer14_sd         =   3.6113349403416109E-03
(PID.TID 0000.0001) %MON trcstat_ptracer14_del2       =   1.6612851062692612E-05
(PID.TID 0000.0001) %MON trcstat_ptracer15_max        =   4.0381417316595623E+01
(PID.TID 0000.0001) %MON trcstat_ptracer15_min        =  -1.3541221684820057E-01
(PID.TID 0000.0001) %MON trcstat_ptracer15_mean       =   1.5122414258762962E-01
(PID.TID 0000.0001) %MON trcstat_ptracer15_sd         =   4.0978962454239137E-01
(PID.TID 0000.0001) %MON trcstat_ptracer15_del2       =   2.1484365318687878E-03
(PID.TID 0000.0001) %MON trcstat_ptracer16_max        =   1.9197594076665765E-04
(PID.TID 0000.0001) %MON trcstat_ptracer16_min        =   1.3498739783641548E-11
(PID.TID 0000.0001) %MON trcstat_ptracer16_mean       =   7.4552539907789793E-07
(PID.TID 0000.0001) %MON trcstat_ptracer16_sd         =   2.3677995635463737E-06
(PID.TID 0000.0001) %MON trcstat_ptracer16_del2       =   1.2374609429284020E-08
(PID.TID 0000.0001) %MON trcstat_ptracer17_max        =   0.0000000000000000E+00
(PID.TID 0000.0001) %MON trcstat_ptracer17_min        =   0.0000000000000000E+00
(PID.TID 0000.0001) %MON trcstat_ptracer17_mean       =   0.0000000000000000E+00
(PID.TID 0000.0001) %MON trcstat_ptracer17_sd         =   0.0000000000000000E+00
(PID.TID 0000.0001) %MON trcstat_ptracer17_del2       =   0.0000000000000000E+00
(PID.TID 0000.0001) %MON trcstat_ptracer18_max        =   5.5328932462875313E-01
(PID.TID 0000.0001) %MON trcstat_ptracer18_min        =   1.2613976328687997E-09
(PID.TID 0000.0001) %MON trcstat_ptracer18_mean       =   4.6055739231255820E-04
(PID.TID 0000.0001) %MON trcstat_ptracer18_sd         =   4.5020982869077315E-03
(PID.TID 0000.0001) %MON trcstat_ptracer18_del2       =   6.3527781827899083E-05
(PID.TID 0000.0001) %MON trcstat_ptracer19_max        =   5.6445234717210357E-01
(PID.TID 0000.0001) %MON trcstat_ptracer19_min        =   1.2588841688942381E-09
(PID.TID 0000.0001) %MON trcstat_ptracer19_mean       =   4.6856218660120292E-04
(PID.TID 0000.0001) %MON trcstat_ptracer19_sd         =   4.5990569390939639E-03
(PID.TID 0000.0001) %MON trcstat_ptracer19_del2       =   6.4132113637669670E-05
(PID.TID 0000.0001) %MON trcstat_ptracer20_max        =   5.7315255560550171E-01
(PID.TID 0000.0001) %MON trcstat_ptracer20_min        =   1.2613976330689778E-09
(PID.TID 0000.0001) %MON trcstat_ptracer20_mean       =   4.6205099503545478E-04
(PID.TID 0000.0001) %MON trcstat_ptracer20_sd         =   4.5435022734501345E-03
(PID.TID 0000.0001) %MON trcstat_ptracer20_del2       =   6.5016895104036345E-05
(PID.TID 0000.0001) %MON trcstat_ptracer21_max        =   5.6445234717210346E-01
(PID.TID 0000.0001) %MON trcstat_ptracer21_min        =   1.2588841688942381E-09
(PID.TID 0000.0001) %MON trcstat_ptracer21_mean       =   4.5123567300437865E-04
(PID.TID 0000.0001) %MON trcstat_ptracer21_sd         =   4.4337163702788370E-03
(PID.TID 0000.0001) %MON trcstat_ptracer21_del2       =   6.3720168786405459E-05
(PID.TID 0000.0001) %MON trcstat_ptracer22_max        =   5.6445234717211001E-01
(PID.TID 0000.0001) %MON trcstat_ptracer22_min        =   1.2588841688942381E-09
(PID.TID 0000.0001) %MON trcstat_ptracer22_mean       =   5.2118601237307900E-04
(PID.TID 0000.0001) %MON trcstat_ptracer22_sd         =   5.2092012548894725E-03
(PID.TID 0000.0001) %MON trcstat_ptracer22_del2       =   6.6668884021404303E-05
(PID.TID 0000.0001) %MON trcstat_ptracer23_max        =   5.6445234717210346E-01
(PID.TID 0000.0001) %MON trcstat_ptracer23_min        =   1.2588841688942381E-09
(PID.TID 0000.0001) %MON trcstat_ptracer23_mean       =   4.7581208126994899E-04
(PID.TID 0000.0001) %MON trcstat_ptracer23_sd         =   4.6381841690726492E-03
(PID.TID 0000.0001) %MON trcstat_ptracer23_del2       =   6.4452296038703370E-05
(PID.TID 0000.0001) %MON trcstat_ptracer24_max        =   5.7310651315884353E-01
(PID.TID 0000.0001) %MON trcstat_ptracer24_min        =   1.2613976330689778E-09
(PID.TID 0000.0001) %MON trcstat_ptracer24_mean       =   5.1324825038231157E-04
(PID.TID 0000.0001) %MON trcstat_ptracer24_sd         =   5.0524776090649882E-03
(PID.TID 0000.0001) %MON trcstat_ptracer24_del2       =   6.6176163862810173E-05
(PID.TID 0000.0001) %MON trcstat_ptracer25_max        =   5.6445234717210380E-01
(PID.TID 0000.0001) %MON trcstat_ptracer25_min        =   1.2588841688942381E-09
(PID.TID 0000.0001) %MON trcstat_ptracer25_mean       =   4.6012293498695964E-04
(PID.TID 0000.0001) %MON trcstat_ptracer25_sd         =   4.5366770580738585E-03
(PID.TID 0000.0001) %MON trcstat_ptracer25_del2       =   6.4266849381895165E-05
(PID.TID 0000.0001) %MON trcstat_ptracer26_max        =   5.6445234717210357E-01
(PID.TID 0000.0001) %MON trcstat_ptracer26_min        =   1.2588841688942381E-09
(PID.TID 0000.0001) %MON trcstat_ptracer26_mean       =   4.6644935332831091E-04
(PID.TID 0000.0001) %MON trcstat_ptracer26_sd         =   4.5810706543907547E-03
(PID.TID 0000.0001) %MON trcstat_ptracer26_del2       =   6.4164732676602078E-05
(PID.TID 0000.0001) %MON trcstat_ptracer27_max        =   5.5323337446678000E-01
(PID.TID 0000.0001) %MON trcstat_ptracer27_min        =   1.2613976328687997E-09
(PID.TID 0000.0001) %MON trcstat_ptracer27_mean       =   4.7581637083415266E-04
(PID.TID 0000.0001) %MON trcstat_ptracer27_sd         =   4.6230053496295583E-03
(PID.TID 0000.0001) %MON trcstat_ptracer27_del2       =   6.3311138202301360E-05
(PID.TID 0000.0001) %MON trcstat_ptracer28_max        =   5.6445234717210391E-01
(PID.TID 0000.0001) %MON trcstat_ptracer28_min        =   1.2588841688942381E-09
(PID.TID 0000.0001) %MON trcstat_ptracer28_mean       =   5.1044391299770659E-04
(PID.TID 0000.0001) %MON trcstat_ptracer28_sd         =   5.1430092214112128E-03
(PID.TID 0000.0001) %MON trcstat_ptracer28_del2       =   6.7470453161620807E-05
(PID.TID 0000.0001) %MON trcstat_ptracer29_max        =   5.6445234717210346E-01
(PID.TID 0000.0001) %MON trcstat_ptracer29_min        =   1.2588841688942381E-09
(PID.TID 0000.0001) %MON trcstat_ptracer29_mean       =   4.6344005921094509E-04
(PID.TID 0000.0001) %MON trcstat_ptracer29_sd         =   4.5474590159488527E-03
(PID.TID 0000.0001) %MON trcstat_ptracer29_del2       =   6.4231413387067133E-05
(PID.TID 0000.0001) %MON trcstat_ptracer30_max        =   5.6445234717210335E-01
(PID.TID 0000.0001) %MON trcstat_ptracer30_min        =   1.2588841688942381E-09
(PID.TID 0000.0001) %MON trcstat_ptracer30_mean       =   4.4616428221642675E-04
(PID.TID 0000.0001) %MON trcstat_ptracer30_sd         =   4.3935201281268847E-03
(PID.TID 0000.0001) %MON trcstat_ptracer30_del2       =   6.3510711426015992E-05
(PID.TID 0000.0001) %MON trcstat_ptracer31_max        =   5.7310651315884131E-01
(PID.TID 0000.0001) %MON trcstat_ptracer31_min        =   1.2613976330689778E-09
(PID.TID 0000.0001) %MON trcstat_ptracer31_mean       =   5.9226424339421581E-04
(PID.TID 0000.0001) %MON trcstat_ptracer31_sd         =   5.6269380659158307E-03
(PID.TID 0000.0001) %MON trcstat_ptracer31_del2       =   6.6010459592810681E-05
(PID.TID 0000.0001) %MON trcstat_ptracer32_max        =   5.5323136705501963E-01
(PID.TID 0000.0001) %MON trcstat_ptracer32_min        =   1.2613976328687997E-09
(PID.TID 0000.0001) %MON trcstat_ptracer32_mean       =   5.5269343095755029E-04
(PID.TID 0000.0001) %MON trcstat_ptracer32_sd         =   5.3552950767633842E-03
(PID.TID 0000.0001) %MON trcstat_ptracer32_del2       =   6.5015117832211301E-05
(PID.TID 0000.0001) %MON trcstat_ptracer33_max        =   5.6445423515656412E-01
(PID.TID 0000.0001) %MON trcstat_ptracer33_min        =   1.2588841688942381E-09
(PID.TID 0000.0001) %MON trcstat_ptracer33_mean       =   4.4077582470414327E-04
(PID.TID 0000.0001) %MON trcstat_ptracer33_sd         =   4.3450468208438252E-03
(PID.TID 0000.0001) %MON trcstat_ptracer33_del2       =   6.3298618659374546E-05
(PID.TID 0000.0001) %MON trcstat_ptracer34_max        =   5.5323136705501930E-01
(PID.TID 0000.0001) %MON trcstat_ptracer34_min        =   1.2613976328687997E-09
(PID.TID 0000.0001) %MON trcstat_ptracer34_mean       =   6.2293809011204800E-04
(PID.TID 0000.0001) %MON trcstat_ptracer34_sd         =   6.1368948143175244E-03
(PID.TID 0000.0001) %MON trcstat_ptracer34_del2       =   6.6574456024011457E-05
(PID.TID 0000.0001) %MON trcstat_ptracer35_max        =   5.5323136705501919E-01
(PID.TID 0000.0001) %MON trcstat_ptracer35_min        =   1.2613976328687997E-09
(PID.TID 0000.0001) %MON trcstat_ptracer35_mean       =   5.7642952801257447E-04
(PID.TID 0000.0001) %MON trcstat_ptracer35_sd         =   5.6257124784512306E-03
(PID.TID 0000.0001) %MON trcstat_ptracer35_del2       =   6.6083425680220454E-05
(PID.TID 0000.0001) %MON trcstat_ptracer36_max        =   5.6445234717210380E-01
(PID.TID 0000.0001) %MON trcstat_ptracer36_min        =   1.2588841688942381E-09
(PID.TID 0000.0001) %MON trcstat_ptracer36_mean       =   5.0982167706296823E-04
(PID.TID 0000.0001) %MON trcstat_ptracer36_sd         =   5.0694837654742565E-03
(PID.TID 0000.0001) %MON trcstat_ptracer36_del2       =   6.6365332594584868E-05
(PID.TID 0000.0001) %MON trcstat_ptracer37_max        =   5.6445363556004835E-01
(PID.TID 0000.0001) %MON trcstat_ptracer37_min        =   1.2588841688942381E-09
(PID.TID 0000.0001) %MON trcstat_ptracer37_mean       =   4.5462369033436576E-04
(PID.TID 0000.0001) %MON trcstat_ptracer37_sd         =   4.4702013622231803E-03
(PID.TID 0000.0001) %MON trcstat_ptracer37_del2       =   6.4128343446060145E-05
(PID.TID 0000.0001) %MON trcstat_ptracer38_max        =   5.6445234717210346E-01
(PID.TID 0000.0001) %MON trcstat_ptracer38_min        =   1.2588841688942381E-09
(PID.TID 0000.0001) %MON trcstat_ptracer38_mean       =   4.4328507154510222E-04
(PID.TID 0000.0001) %MON trcstat_ptracer38_sd         =   4.3691029193968518E-03
(PID.TID 0000.0001) %MON trcstat_ptracer38_del2       =   6.3405944723835640E-05
(PID.TID 0000.0001) %MON trcstat_ptracer39_max        =   5.5323136705502030E-01
(PID.TID 0000.0001) %MON trcstat_ptracer39_min        =   1.2613976328687997E-09
(PID.TID 0000.0001) %MON trcstat_ptracer39_mean       =   6.1094004491714263E-04
(PID.TID 0000.0001) %MON trcstat_ptracer39_sd         =   6.0631329724510040E-03
(PID.TID 0000.0001) %MON trcstat_ptracer39_del2       =   6.6905183832842677E-05
(PID.TID 0000.0001) %MON trcstat_ptracer40_max        =   5.6445234717210357E-01
(PID.TID 0000.0001) %MON trcstat_ptracer40_min        =   1.2588841688942381E-09
(PID.TID 0000.0001) %MON trcstat_ptracer40_mean       =   4.6412873315673916E-04
(PID.TID 0000.0001) %MON trcstat_ptracer40_sd         =   4.5594130258080302E-03
(PID.TID 0000.0001) %MON trcstat_ptracer40_del2       =   6.4086919652122328E-05
(PID.TID 0000.0001) %MON trcstat_ptracer41_max        =   5.6445234717210346E-01
(PID.TID 0000.0001) %MON trcstat_ptracer41_min        =   1.2588841688942381E-09
(PID.TID 0000.0001) %MON trcstat_ptracer41_mean       =   4.6207580733491631E-04
(PID.TID 0000.0001) %MON trcstat_ptracer41_sd         =   4.5299038575810253E-03
(PID.TID 0000.0001) %MON trcstat_ptracer41_del2       =   6.4136052681481624E-05
(PID.TID 0000.0001) %MON trcstat_ptracer42_max        =   5.6445234717210380E-01
(PID.TID 0000.0001) %MON trcstat_ptracer42_min        =   1.2588841688942381E-09
(PID.TID 0000.0001) %MON trcstat_ptracer42_mean       =   4.6094182342555802E-04
(PID.TID 0000.0001) %MON trcstat_ptracer42_sd         =   4.5459391415650433E-03
(PID.TID 0000.0001) %MON trcstat_ptracer42_del2       =   6.4310604794103713E-05
(PID.TID 0000.0001) %MON trcstat_ptracer43_max        =   5.6445234717210357E-01
(PID.TID 0000.0001) %MON trcstat_ptracer43_min        =   1.2588841688942381E-09
(PID.TID 0000.0001) %MON trcstat_ptracer43_mean       =   5.5637444928489520E-04
(PID.TID 0000.0001) %MON trcstat_ptracer43_sd         =   5.4170816106523254E-03
(PID.TID 0000.0001) %MON trcstat_ptracer43_del2       =   6.6190270380512523E-05
(PID.TID 0000.0001) %MON trcstat_ptracer44_max        =   5.5326802874429026E-01
(PID.TID 0000.0001) %MON trcstat_ptracer44_min        =   1.2613976328687997E-09
(PID.TID 0000.0001) %MON trcstat_ptracer44_mean       =   4.5128003809847081E-04
(PID.TID 0000.0001) %MON trcstat_ptracer44_sd         =   4.4046405093276500E-03
(PID.TID 0000.0001) %MON trcstat_ptracer44_del2       =   6.2859216928998340E-05
(PID.TID 0000.0001) %MON trcstat_ptracer45_max        =   5.5323136705501474E-01
(PID.TID 0000.0001) %MON trcstat_ptracer45_min        =   1.2613976328687997E-09
(PID.TID 0000.0001) %MON trcstat_ptracer45_mean       =   4.9966681257525476E-04
(PID.TID 0000.0001) %MON trcstat_ptracer45_sd         =   4.7499463437318786E-03
(PID.TID 0000.0001) %MON trcstat_ptracer45_del2       =   6.3067857182104971E-05
(PID.TID 0000.0001) %MON trcstat_ptracer46_max        =   5.6448456166718242E-01
(PID.TID 0000.0001) %MON trcstat_ptracer46_min        =   1.2588841688942381E-09
(PID.TID 0000.0001) %MON trcstat_ptracer46_mean       =   4.4926003295755768E-04
(PID.TID 0000.0001) %MON trcstat_ptracer46_sd         =   4.4272968380015664E-03
(PID.TID 0000.0001) %MON trcstat_ptracer46_del2       =   6.3832818694284019E-05
(PID.TID 0000.0001) %MON trcstat_ptracer47_max        =   5.6445234717210357E-01
(PID.TID 0000.0001) %MON trcstat_ptracer47_min        =   1.2588841688942381E-09
(PID.TID 0000.0001) %MON trcstat_ptracer47_mean       =   4.5549207241544462E-04
(PID.TID 0000.0001) %MON trcstat_ptracer47_sd         =   4.4645185674859608E-03
(PID.TID 0000.0001) %MON trcstat_ptracer47_del2       =   6.3954304521194005E-05
(PID.TID 0000.0001) %MON trcstat_ptracer48_max        =   5.7310651315884065E-01
(PID.TID 0000.0001) %MON trcstat_ptracer48_min        =   1.2613976330689778E-09
(PID.TID 0000.0001) %MON trcstat_ptracer48_mean       =   4.9178237930604519E-04
(PID.TID 0000.0001) %MON trcstat_ptracer48_sd         =   4.7990405306563124E-03
(PID.TID 0000.0001) %MON trcstat_ptracer48_del2       =   6.5107799361485328E-05
(PID.TID 0000.0001) %MON trcstat_ptracer49_max        =   5.6445234717210357E-01
(PID.TID 0000.0001) %MON trcstat_ptracer49_min        =   1.2588841688942381E-09
(PID.TID 0000.0001) %MON trcstat_ptracer49_mean       =   4.8950042784781731E-04
(PID.TID 0000.0001) %MON trcstat_ptracer49_sd         =   4.8625579134321936E-03
(PID.TID 0000.0001) %MON trcstat_ptracer49_del2       =   6.6319416199073198E-05
(PID.TID 0000.0001) %MON trcstat_ptracer50_max        =   5.6445234717210380E-01
(PID.TID 0000.0001) %MON trcstat_ptracer50_min        =   1.2588841688942381E-09
(PID.TID 0000.0001) %MON trcstat_ptracer50_mean       =   4.6120555541683174E-04
(PID.TID 0000.0001) %MON trcstat_ptracer50_sd         =   4.5500179188601893E-03
(PID.TID 0000.0001) %MON trcstat_ptracer50_del2       =   6.4243643568961430E-05
(PID.TID 0000.0001) %MON trcstat_ptracer51_max        =   5.5323136705501363E-01
(PID.TID 0000.0001) %MON trcstat_ptracer51_min        =   1.2613976328687997E-09
(PID.TID 0000.0001) %MON trcstat_ptracer51_mean       =   4.9096237245822936E-04
(PID.TID 0000.0001) %MON trcstat_ptracer51_sd         =   4.6148330070016992E-03
(PID.TID 0000.0001) %MON trcstat_ptracer51_del2       =   6.2617484656066094E-05
(PID.TID 0000.0001) %MON trcstat_ptracer52_max        =   5.5323136705501885E-01
(PID.TID 0000.0001) %MON trcstat_ptracer52_min        =   1.2613976328687997E-09
(PID.TID 0000.0001) %MON trcstat_ptracer52_mean       =   5.5129607579498666E-04
(PID.TID 0000.0001) %MON trcstat_ptracer52_sd         =   5.3645476645677514E-03
(PID.TID 0000.0001) %MON trcstat_ptracer52_del2       =   6.5470469693190261E-05
(PID.TID 0000.0001) %MON trcstat_ptracer53_max        =   5.6445234717210824E-01
(PID.TID 0000.0001) %MON trcstat_ptracer53_min        =   1.2588841688942381E-09
(PID.TID 0000.0001) %MON trcstat_ptracer53_mean       =   5.3141946461356029E-04
(PID.TID 0000.0001) %MON trcstat_ptracer53_sd         =   5.2243079521898670E-03
(PID.TID 0000.0001) %MON trcstat_ptracer53_del2       =   6.5860082635534249E-05
(PID.TID 0000.0001) %MON trcstat_ptracer54_max        =   5.6445234717210413E-01
(PID.TID 0000.0001) %MON trcstat_ptracer54_min        =   1.2588841688942381E-09
(PID.TID 0000.0001) %MON trcstat_ptracer54_mean       =   4.5801897296360208E-04
(PID.TID 0000.0001) %MON trcstat_ptracer54_sd         =   4.5193438397653782E-03
(PID.TID 0000.0001) %MON trcstat_ptracer54_del2       =   6.4239504023968835E-05
(PID.TID 0000.0001) %MON trcstat_ptracer55_max        =   5.7310651315884242E-01
(PID.TID 0000.0001) %MON trcstat_ptracer55_min        =   1.2613976330689778E-09
(PID.TID 0000.0001) %MON trcstat_ptracer55_mean       =   5.7574552556344000E-04
(PID.TID 0000.0001) %MON trcstat_ptracer55_sd         =   5.5705725401628244E-03
(PID.TID 0000.0001) %MON trcstat_ptracer55_del2       =   6.6459593154804172E-05
(PID.TID 0000.0001) %MON trcstat_ptracer56_max        =   5.7310651315884542E-01
(PID.TID 0000.0001) %MON trcstat_ptracer56_min        =   1.2613976330689778E-09
(PID.TID 0000.0001) %MON trcstat_ptracer56_mean       =   5.2135632975129186E-04
(PID.TID 0000.0001) %MON trcstat_ptracer56_sd         =   5.1498676186025353E-03
(PID.TID 0000.0001) %MON trcstat_ptracer56_del2       =   6.6744567829682210E-05
(PID.TID 0000.0001) %MON trcstat_ptracer57_max        =   5.5323136705501541E-01
(PID.TID 0000.0001) %MON trcstat_ptracer57_min        =   1.2613976328687997E-09
(PID.TID 0000.0001) %MON trcstat_ptracer57_mean       =   4.9345734724471452E-04
(PID.TID 0000.0001) %MON trcstat_ptracer57_sd         =   4.7573564990120052E-03
(PID.TID 0000.0001) %MON trcstat_ptracer57_del2       =   6.3231363458842983E-05
(PID.TID 0000.0001) %MON trcstat_ptracer58_max        =   5.5327883449831661E-01
(PID.TID 0000.0001) %MON trcstat_ptracer58_min        =   1.2613976328687997E-09
(PID.TID 0000.0001) %MON trcstat_ptracer58_mean       =   4.8132083553315198E-04
(PID.TID 0000.0001) %MON trcstat_ptracer58_sd         =   4.7109258464830949E-03
(PID.TID 0000.0001) %MON trcstat_ptracer58_del2       =   6.4507760573391523E-05
(PID.TID 0000.0001) %MON trcstat_ptracer59_max        =   5.5323136705501785E-01
(PID.TID 0000.0001) %MON trcstat_ptracer59_min        =   1.2613976328687997E-09
(PID.TID 0000.0001) %MON trcstat_ptracer59_mean       =   5.8813560078213914E-04
(PID.TID 0000.0001) %MON trcstat_ptracer59_sd         =   5.6648584432666483E-03
(PID.TID 0000.0001) %MON trcstat_ptracer59_del2       =   6.5088479969690360E-05
(PID.TID 0000.0001) %MON trcstat_ptracer60_max        =   5.7310651315884409E-01
(PID.TID 0000.0001) %MON trcstat_ptracer60_min        =   1.2613976330689778E-09
(PID.TID 0000.0001) %MON trcstat_ptracer60_mean       =   5.7434670158998152E-04
(PID.TID 0000.0001) %MON trcstat_ptracer60_sd         =   5.6078472545317637E-03
(PID.TID 0000.0001) %MON trcstat_ptracer60_del2       =   6.7029024279893456E-05
(PID.TID 0000.0001) %MON trcstat_ptracer61_max        =   5.7310651315884298E-01
(PID.TID 0000.0001) %MON trcstat_ptracer61_min        =   1.2613976330689778E-09
(PID.TID 0000.0001) %MON trcstat_ptracer61_mean       =   5.0226313008910786E-04
(PID.TID 0000.0001) %MON trcstat_ptracer61_sd         =   4.9475283309823610E-03
(PID.TID 0000.0001) %MON trcstat_ptracer61_del2       =   6.5785490654371307E-05
(PID.TID 0000.0001) %MON trcstat_ptracer62_max        =   5.7310651315884242E-01
(PID.TID 0000.0001) %MON trcstat_ptracer62_min        =   1.2613976330689778E-09
(PID.TID 0000.0001) %MON trcstat_ptracer62_mean       =   4.9392569145012360E-04
(PID.TID 0000.0001) %MON trcstat_ptracer62_sd         =   4.8645132349777517E-03
(PID.TID 0000.0001) %MON trcstat_ptracer62_del2       =   6.5622247603207376E-05
(PID.TID 0000.0001) %MON trcstat_ptracer63_max        =   5.5323232205873474E-01
(PID.TID 0000.0001) %MON trcstat_ptracer63_min        =   1.2613976328687997E-09
(PID.TID 0000.0001) %MON trcstat_ptracer63_mean       =   4.5095038541251265E-04
(PID.TID 0000.0001) %MON trcstat_ptracer63_sd         =   4.3737732978030705E-03
(PID.TID 0000.0001) %MON trcstat_ptracer63_del2       =   6.2455248360047871E-05
(PID.TID 0000.0001) %MON trcstat_ptracer64_max        =   5.6445234717210357E-01
(PID.TID 0000.0001) %MON trcstat_ptracer64_min        =   1.2588841688942381E-09
(PID.TID 0000.0001) %MON trcstat_ptracer64_mean       =   4.7620399932915222E-04
(PID.TID 0000.0001) %MON trcstat_ptracer64_sd         =   4.6478281087123565E-03
(PID.TID 0000.0001) %MON trcstat_ptracer64_del2       =   6.4329494506852676E-05
(PID.TID 0000.0001) %MON trcstat_ptracer65_max        =   5.7310651315884353E-01
(PID.TID 0000.0001) %MON trcstat_ptracer65_min        =   1.2613976330689778E-09
(PID.TID 0000.0001) %MON trcstat_ptracer65_mean       =   5.2601272999983106E-04
(PID.TID 0000.0001) %MON trcstat_ptracer65_sd         =   5.1578476317961346E-03
(PID.TID 0000.0001) %MON trcstat_ptracer65_del2       =   6.6436735734389969E-05
(PID.TID 0000.0001) %MON trcstat_ptracer66_max        =   5.7310651315883865E-01
(PID.TID 0000.0001) %MON trcstat_ptracer66_min        =   1.2613976330689778E-09
(PID.TID 0000.0001) %MON trcstat_ptracer66_mean       =   4.6492296193494049E-04
(PID.TID 0000.0001) %MON trcstat_ptracer66_sd         =   4.5375237076910341E-03
(PID.TID 0000.0001) %MON trcstat_ptracer66_del2       =   6.4406114156762012E-05
(PID.TID 0000.0001) %MON trcstat_ptracer67_max        =   5.7310651315884154E-01
(PID.TID 0000.0001) %MON trcstat_ptracer67_min        =   1.2613976330689778E-09
(PID.TID 0000.0001) %MON trcstat_ptracer67_mean       =   4.9357407586195830E-04
(PID.TID 0000.0001) %MON trcstat_ptracer67_sd         =   4.8399165471509301E-03
(PID.TID 0000.0001) %MON trcstat_ptracer67_del2       =   6.5325579206037626E-05
(PID.TID 0000.0001) %MON trcstat_ptracer68_max        =   5.6445234717210080E-01
(PID.TID 0000.0001) %MON trcstat_ptracer68_min        =   1.2588841688942381E-09
(PID.TID 0000.0001) %MON trcstat_ptracer68_mean       =   4.4734925133762594E-04
(PID.TID 0000.0001) %MON trcstat_ptracer68_sd         =   4.4203123066366293E-03
(PID.TID 0000.0001) %MON trcstat_ptracer68_del2       =   6.3621647442442913E-05
(PID.TID 0000.0001) %MON trcstat_ptracer69_max        =   5.7310651315884453E-01
(PID.TID 0000.0001) %MON trcstat_ptracer69_min        =   1.2613976330689778E-09
(PID.TID 0000.0001) %MON trcstat_ptracer69_mean       =   5.2065530414424405E-04
(PID.TID 0000.0001) %MON trcstat_ptracer69_sd         =   5.1314316814211631E-03
(PID.TID 0000.0001) %MON trcstat_ptracer69_del2       =   6.6547760831502440E-05
(PID.TID 0000.0001) %MON trcstat_ptracer70_max        =   5.5326426842675913E-01
(PID.TID 0000.0001) %MON trcstat_ptracer70_min        =   1.2613976328687997E-09
(PID.TID 0000.0001) %MON trcstat_ptracer70_mean       =   4.6900258785562593E-04
(PID.TID 0000.0001) %MON trcstat_ptracer70_sd         =   4.5595365738022274E-03
(PID.TID 0000.0001) %MON trcstat_ptracer70_del2       =   6.3401351208072388E-05
(PID.TID 0000.0001) %MON trcstat_ptracer71_max        =   5.6445234717211035E-01
(PID.TID 0000.0001) %MON trcstat_ptracer71_min        =   1.2588841688942381E-09
(PID.TID 0000.0001) %MON trcstat_ptracer71_mean       =   5.1135636742964186E-04
(PID.TID 0000.0001) %MON trcstat_ptracer71_sd         =   5.1242317354242457E-03
(PID.TID 0000.0001) %MON trcstat_ptracer71_del2       =   6.6695665702519203E-05
(PID.TID 0000.0001) %MON trcstat_ptracer72_max        =   5.6445234717210346E-01
(PID.TID 0000.0001) %MON trcstat_ptracer72_min        =   1.2588841688942381E-09
(PID.TID 0000.0001) %MON trcstat_ptracer72_mean       =   5.0343231160325345E-04
(PID.TID 0000.0001) %MON trcstat_ptracer72_sd         =   4.9885926033065870E-03
(PID.TID 0000.0001) %MON trcstat_ptracer72_del2       =   6.6348150792392118E-05
(PID.TID 0000.0001) %MON trcstat_ptracer73_max        =   5.6445234717210357E-01
(PID.TID 0000.0001) %MON trcstat_ptracer73_min        =   1.2588841688942381E-09
(PID.TID 0000.0001) %MON trcstat_ptracer73_mean       =   5.2778654880637635E-04
(PID.TID 0000.0001) %MON trcstat_ptracer73_sd         =   5.0897017805998993E-03
(PID.TID 0000.0001) %MON trcstat_ptracer73_del2       =   6.5234541635942700E-05
(PID.TID 0000.0001) %MON trcstat_ptracer74_max        =   5.6445234717210335E-01
(PID.TID 0000.0001) %MON trcstat_ptracer74_min        =   1.2588841688942381E-09
(PID.TID 0000.0001) %MON trcstat_ptracer74_mean       =   4.7202637485757766E-04
(PID.TID 0000.0001) %MON trcstat_ptracer74_sd         =   4.6187591298499668E-03
(PID.TID 0000.0001) %MON trcstat_ptracer74_del2       =   6.4246022395632787E-05
(PID.TID 0000.0001) %MON trcstat_ptracer75_max        =   5.5323136705501463E-01
(PID.TID 0000.0001) %MON trcstat_ptracer75_min        =   1.2613976328687997E-09
(PID.TID 0000.0001) %MON trcstat_ptracer75_mean       =   5.1724399151819288E-04
(PID.TID 0000.0001) %MON trcstat_ptracer75_sd         =   4.8532415584084995E-03
(PID.TID 0000.0001) %MON trcstat_ptracer75_del2       =   6.3091342718343433E-05
(PID.TID 0000.0001) %MON trcstat_ptracer76_max        =   5.7315508362353451E-01
(PID.TID 0000.0001) %MON trcstat_ptracer76_min        =   1.2613976330689778E-09
(PID.TID 0000.0001) %MON trcstat_ptracer76_mean       =   4.8259112337110482E-04
(PID.TID 0000.0001) %MON trcstat_ptracer76_sd         =   4.7523728608208438E-03
(PID.TID 0000.0001) %MON trcstat_ptracer76_del2       =   6.6098452508583355E-05
(PID.TID 0000.0001) %MON trcstat_ptracer77_max        =   5.6445234717210380E-01
(PID.TID 0000.0001) %MON trcstat_ptracer77_min        =   1.2588841688942381E-09
(PID.TID 0000.0001) %MON trcstat_ptracer77_mean       =   4.6405751997655837E-04
(PID.TID 0000.0001) %MON trcstat_ptracer77_sd         =   4.5722362376218809E-03
(PID.TID 0000.0001) %MON trcstat_ptracer77_del2       =   6.4415046452573924E-05
(PID.TID 0000.0001) %MON trcstat_ptracer78_max        =   5.5323136705501808E-01
(PID.TID 0000.0001) %MON trcstat_ptracer78_min        =   1.2613976328687997E-09
(PID.TID 0000.0001) %MON trcstat_ptracer78_mean       =   5.0759175496511543E-04
(PID.TID 0000.0001) %MON trcstat_ptracer78_sd         =   4.9556954082960658E-03
(PID.TID 0000.0001) %MON trcstat_ptracer78_del2       =   6.4256831652335054E-05
(PID.TID 0000.0001) %MON trcstat_ptracer79_max        =   5.7310651315884364E-01
(PID.TID 0000.0001) %MON trcstat_ptracer79_min        =   1.2613976330689778E-09
(PID.TID 0000.0001) %MON trcstat_ptracer79_mean       =   5.7716634417187833E-04
(PID.TID 0000.0001) %MON trcstat_ptracer79_sd         =   5.6172259312813810E-03
(PID.TID 0000.0001) %MON trcstat_ptracer79_del2       =   6.6890595381835865E-05
(PID.TID 0000.0001) %MON trcstat_ptracer80_max        =   5.7310651315884231E-01
(PID.TID 0000.0001) %MON trcstat_ptracer80_min        =   1.2613976330689778E-09
(PID.TID 0000.0001) %MON trcstat_ptracer80_mean       =   5.4909265910479217E-04
(PID.TID 0000.0001) %MON trcstat_ptracer80_sd         =   5.3365911544248608E-03
(PID.TID 0000.0001) %MON trcstat_ptracer80_del2       =   6.6565836038218320E-05
(PID.TID 0000.0001) %MON trcstat_ptracer81_max        =   5.6446556972375306E-01
(PID.TID 0000.0001) %MON trcstat_ptracer81_min        =   1.2588841688942381E-09
(PID.TID 0000.0001) %MON trcstat_ptracer81_mean       =   4.5462440327061774E-04
(PID.TID 0000.0001) %MON trcstat_ptracer81_sd         =   4.4540006765998712E-03
(PID.TID 0000.0001) %MON trcstat_ptracer81_del2       =   6.3884683191005952E-05
(PID.TID 0000.0001) %MON trcstat_ptracer82_max        =   5.6445234717210357E-01
(PID.TID 0000.0001) %MON trcstat_ptracer82_min        =   1.2588841688942381E-09
(PID.TID 0000.0001) %MON trcstat_ptracer82_mean       =   4.9782379249911548E-04
(PID.TID 0000.0001) %MON trcstat_ptracer82_sd         =   4.9634531135746866E-03
(PID.TID 0000.0001) %MON trcstat_ptracer82_del2       =   6.6658572180620861E-05
(PID.TID 0000.0001) %MON trcstat_ptracer83_max        =   5.6445234717210335E-01
(PID.TID 0000.0001) %MON trcstat_ptracer83_min        =   1.2588841688942381E-09
(PID.TID 0000.0001) %MON trcstat_ptracer83_mean       =   4.4305036834460222E-04
(PID.TID 0000.0001) %MON trcstat_ptracer83_sd         =   4.3660450023323000E-03
(PID.TID 0000.0001) %MON trcstat_ptracer83_del2       =   6.3389746047446489E-05
(PID.TID 0000.0001) %MON trcstat_ptracer84_max        =   5.7310651315884176E-01
(PID.TID 0000.0001) %MON trcstat_ptracer84_min        =   1.2613976330689778E-09
(PID.TID 0000.0001) %MON trcstat_ptracer84_mean       =   5.0332720821661206E-04
(PID.TID 0000.0001) %MON trcstat_ptracer84_sd         =   4.9206248244600187E-03
(PID.TID 0000.0001) %MON trcstat_ptracer84_del2       =   6.5455036130903149E-05
(PID.TID 0000.0001) %MON trcstat_ptracer85_max        =   5.6445234717210346E-01
(PID.TID 0000.0001) %MON trcstat_ptracer85_min        =   1.2588841688942381E-09
(PID.TID 0000.0001) %MON trcstat_ptracer85_mean       =   4.5142809069777939E-04
(PID.TID 0000.0001) %MON trcstat_ptracer85_sd         =   4.4405010187076105E-03
(PID.TID 0000.0001) %MON trcstat_ptracer85_del2       =   6.3746865403873233E-05
(PID.TID 0000.0001) %MON trcstat_ptracer86_max        =   5.6445838503668733E-01
(PID.TID 0000.0001) %MON trcstat_ptracer86_min        =   1.2588841688942381E-09
(PID.TID 0000.0001) %MON trcstat_ptracer86_mean       =   4.4062113200696952E-04
(PID.TID 0000.0001) %MON trcstat_ptracer86_sd         =   4.3649080289094120E-03
(PID.TID 0000.0001) %MON trcstat_ptracer86_del2       =   6.3301286964978956E-05
(PID.TID 0000.0001) %MON trcstat_ptracer87_max        =   5.6445234717210335E-01
(PID.TID 0000.0001) %MON trcstat_ptracer87_min        =   1.2588841688942381E-09
(PID.TID 0000.0001) %MON trcstat_ptracer87_mean       =   4.6158355221697994E-04
(PID.TID 0000.0001) %MON trcstat_ptracer87_sd         =   4.5156593871565889E-03
(PID.TID 0000.0001) %MON trcstat_ptracer87_del2       =   6.3855276637820918E-05
(PID.TID 0000.0001) %MON trcstat_ptracer88_max        =   5.6445234717210357E-01
(PID.TID 0000.0001) %MON trcstat_ptracer88_min        =   1.2588841688942381E-09
(PID.TID 0000.0001) %MON trcstat_ptracer88_mean       =   5.5550906310348894E-04
(PID.TID 0000.0001) %MON trcstat_ptracer88_sd         =   5.3404232125472909E-03
(PID.TID 0000.0001) %MON trcstat_ptracer88_del2       =   6.5768550075358105E-05
(PID.TID 0000.0001) %MON trcstat_ptracer89_max        =   5.5323136705502052E-01
(PID.TID 0000.0001) %MON trcstat_ptracer89_min        =   1.2613976328687997E-09
(PID.TID 0000.0001) %MON trcstat_ptracer89_mean       =   5.4207304713704818E-04
(PID.TID 0000.0001) %MON trcstat_ptracer89_sd         =   5.3211549971338111E-03
(PID.TID 0000.0001) %MON trcstat_ptracer89_del2       =   6.5902368504566414E-05
(PID.TID 0000.0001) %MON trcstat_ptracer90_max        =   5.5323136705501619E-01
(PID.TID 0000.0001) %MON trcstat_ptracer90_min        =   1.2613976328687997E-09
(PID.TID 0000.0001) %MON trcstat_ptracer90_mean       =   4.9826300186497571E-04
(PID.TID 0000.0001) %MON trcstat_ptracer90_sd         =   4.8157989519494997E-03
(PID.TID 0000.0001) %MON trcstat_ptracer90_del2       =   6.3535599175367451E-05
(PID.TID 0000.0001) %MON trcstat_ptracer91_max        =   5.7313991711262469E-01
(PID.TID 0000.0001) %MON trcstat_ptracer91_min        =   1.2613976330689778E-09
(PID.TID 0000.0001) %MON trcstat_ptracer91_mean       =   4.5295064086069045E-04
(PID.TID 0000.0001) %MON trcstat_ptracer91_sd         =   4.4594508621431566E-03
(PID.TID 0000.0001) %MON trcstat_ptracer91_del2       =   6.4554412143268778E-05
(PID.TID 0000.0001) %MON trcstat_ptracer92_max        =   5.6445234717210335E-01
(PID.TID 0000.0001) %MON trcstat_ptracer92_min        =   1.2588841688942381E-09
(PID.TID 0000.0001) %MON trcstat_ptracer92_mean       =   4.9546250950074835E-04
(PID.TID 0000.0001) %MON trcstat_ptracer92_sd         =   4.7162976591402566E-03
(PID.TID 0000.0001) %MON trcstat_ptracer92_del2       =   6.3971907735130241E-05
(PID.TID 0000.0001) %MON trcstat_ptracer93_max        =   5.6445234717210413E-01
(PID.TID 0000.0001) %MON trcstat_ptracer93_min        =   1.2588841688942381E-09
(PID.TID 0000.0001) %MON trcstat_ptracer93_mean       =   4.8485540329070462E-04
(PID.TID 0000.0001) %MON trcstat_ptracer93_sd         =   4.8320664558497055E-03
(PID.TID 0000.0001) %MON trcstat_ptracer93_del2       =   6.6468699355538949E-05
(PID.TID 0000.0001) %MON trcstat_ptracer94_max        =   5.6445234717210357E-01
(PID.TID 0000.0001) %MON trcstat_ptracer94_min        =   1.2588841688942381E-09
(PID.TID 0000.0001) %MON trcstat_ptracer94_mean       =   4.8343870912233517E-04
(PID.TID 0000.0001) %MON trcstat_ptracer94_sd         =   4.7157734325438232E-03
(PID.TID 0000.0001) %MON trcstat_ptracer94_del2       =   6.4453358315778037E-05
(PID.TID 0000.0001) %MON trcstat_ptracer95_max        =   5.6445234717210380E-01
(PID.TID 0000.0001) %MON trcstat_ptracer95_min        =   1.2588841688942381E-09
(PID.TID 0000.0001) %MON trcstat_ptracer95_mean       =   5.0900024412539623E-04
(PID.TID 0000.0001) %MON trcstat_ptracer95_sd         =   5.1194763599408883E-03
(PID.TID 0000.0001) %MON trcstat_ptracer95_del2       =   6.7315438163542519E-05
(PID.TID 0000.0001) %MON trcstat_ptracer96_max        =   7.7151007298586487E+00
(PID.TID 0000.0001) %MON trcstat_ptracer96_min        =   1.3127644995345648E-08
(PID.TID 0000.0001) %MON trcstat_ptracer96_mean       =   4.7820212223597556E-03
(PID.TID 0000.0001) %MON trcstat_ptracer96_sd         =   5.1195467396255773E-02
(PID.TID 0000.0001) %MON trcstat_ptracer96_del2       =   8.2816003464524120E-04
(PID.TID 0000.0001) %MON trcstat_ptracer97_max        =   7.8611542808543096E+00
(PID.TID 0000.0001) %MON trcstat_ptracer97_min        =   1.3127644994655093E-08
(PID.TID 0000.0001) %MON trcstat_ptracer97_mean       =   4.7894512406507295E-03
(PID.TID 0000.0001) %MON trcstat_ptracer97_sd         =   5.1522840659970474E-02
(PID.TID 0000.0001) %MON trcstat_ptracer97_del2       =   8.3964617048595184E-04
(PID.TID 0000.0001) // =======================================================
(PID.TID 0000.0001) // End MONITOR ptracers field statistics
(PID.TID 0000.0001) // =======================================================
 Computing Diagnostic #    224  TRAC01       Counter:       1   Parms: SMR     MR      
 Computing Diagnostic #    236  TRAC02       Counter:       1   Parms: SMR     MR      
 Computing Diagnostic #    248  TRAC03       Counter:       1   Parms: SMR     MR      
 Computing Diagnostic #    260  TRAC04       Counter:       1   Parms: SMR     MR      
 Computing Diagnostic #    272  TRAC05       Counter:       1   Parms: SMR     MR      
 Computing Diagnostic #    284  TRAC06       Counter:       1   Parms: SMR     MR      
 Computing Diagnostic #    296  TRAC07       Counter:       1   Parms: SMR     MR      
 Computing Diagnostic #    308  TRAC08       Counter:       1   Parms: SMR     MR      
 Computing Diagnostic #    320  TRAC09       Counter:       1   Parms: SMR     MR      
 Computing Diagnostic #    332  TRAC10       Counter:       1   Parms: SMR     MR      
 Computing Diagnostic #    344  TRAC11       Counter:       1   Parms: SMR     MR      
 Computing Diagnostic #    356  TRAC12       Counter:       1   Parms: SMR     MR      
 Computing Diagnostic #    368  TRAC13       Counter:       1   Parms: SMR     MR      
 Computing Diagnostic #    380  TRAC14       Counter:       1   Parms: SMR     MR      
 Computing Diagnostic #    392  TRAC15       Counter:       1   Parms: SMR     MR      
 Computing Diagnostic #    404  TRAC16       Counter:       1   Parms: SMR     MR      
 Computing Diagnostic #    416  TRAC17       Counter:       1   Parms: SMR     MR      
 Computing Diagnostic #    428  TRAC18       Counter:       1   Parms: SMR     MR      
 Computing Diagnostic #    440  TRAC19       Counter:       1   Parms: SMR     MR      
 Computing Diagnostic #    452  TRAC20       Counter:       1   Parms: SMR     MR      
 Computing Diagnostic #    464  TRAC21       Counter:       1   Parms: SMR     MR      
 Computing Diagnostic #    476  TRAC22       Counter:       1   Parms: SMR     MR      
 Computing Diagnostic #    488  TRAC23       Counter:       1   Parms: SMR     MR      
 Computing Diagnostic #    500  TRAC24       Counter:       1   Parms: SMR     MR      
 Computing Diagnostic #    512  TRAC25       Counter:       1   Parms: SMR     MR      
 Computing Diagnostic #    524  TRAC26       Counter:       1   Parms: SMR     MR      
 Computing Diagnostic #    536  TRAC27       Counter:       1   Parms: SMR     MR      
 Computing Diagnostic #    548  TRAC28       Counter:       1   Parms: SMR     MR      
 Computing Diagnostic #    560  TRAC29       Counter:       1   Parms: SMR     MR      
 Computing Diagnostic #    572  TRAC30       Counter:       1   Parms: SMR     MR      
 Computing Diagnostic #    584  TRAC31       Counter:       1   Parms: SMR     MR      
 Computing Diagnostic #    596  TRAC32       Counter:       1   Parms: SMR     MR      
 Computing Diagnostic #    608  TRAC33       Counter:       1   Parms: SMR     MR      
 Computing Diagnostic #    620  TRAC34       Counter:       1   Parms: SMR     MR      
 Computing Diagnostic #    632  TRAC35       Counter:       1   Parms: SMR     MR      
 Computing Diagnostic #    644  TRAC36       Counter:       1   Parms: SMR     MR      
 Computing Diagnostic #    656  TRAC37       Counter:       1   Parms: SMR     MR      
 Computing Diagnostic #    668  TRAC38       Counter:       1   Parms: SMR     MR      
 Computing Diagnostic #    680  TRAC39       Counter:       1   Parms: SMR     MR      
 Computing Diagnostic #    692  TRAC40       Counter:       1   Parms: SMR     MR      
 Computing Diagnostic #    704  TRAC41       Counter:       1   Parms: SMR     MR      
 Computing Diagnostic #    716  TRAC42       Counter:       1   Parms: SMR     MR      
 Computing Diagnostic #    728  TRAC43       Counter:       1   Parms: SMR     MR      
 Computing Diagnostic #    740  TRAC44       Counter:       1   Parms: SMR     MR      
 Computing Diagnostic #    752  TRAC45       Counter:       1   Parms: SMR     MR      
 Computing Diagnostic #    764  TRAC46       Counter:       1   Parms: SMR     MR      
 Computing Diagnostic #    776  TRAC47       Counter:       1   Parms: SMR     MR      
 Computing Diagnostic #    788  TRAC48       Counter:       1   Parms: SMR     MR      
 Computing Diagnostic #    800  TRAC49       Counter:       1   Parms: SMR     MR      
 Computing Diagnostic #    812  TRAC50       Counter:       1   Parms: SMR     MR      
 Computing Diagnostic #    824  TRAC51       Counter:       1   Parms: SMR     MR      
 Computing Diagnostic #    836  TRAC52       Counter:       1   Parms: SMR     MR      
 Computing Diagnostic #    848  TRAC53       Counter:       1   Parms: SMR     MR      
 Computing Diagnostic #    860  TRAC54       Counter:       1   Parms: SMR     MR      
 Computing Diagnostic #    872  TRAC55       Counter:       1   Parms: SMR     MR      
 Computing Diagnostic #    884  TRAC56       Counter:       1   Parms: SMR     MR      
 Computing Diagnostic #    896  TRAC57       Counter:       1   Parms: SMR     MR      
 Computing Diagnostic #    908  TRAC58       Counter:       1   Parms: SMR     MR      
 Computing Diagnostic #    920  TRAC59       Counter:       1   Parms: SMR     MR      
 Computing Diagnostic #    932  TRAC60       Counter:       1   Parms: SMR     MR      
 Computing Diagnostic #    944  TRAC61       Counter:       1   Parms: SMR     MR      
 Computing Diagnostic #    956  TRAC62       Counter:       1   Parms: SMR     MR      
 Computing Diagnostic #    968  TRAC63       Counter:       1   Parms: SMR     MR      
 Computing Diagnostic #    980  TRAC64       Counter:       1   Parms: SMR     MR      
 Computing Diagnostic #    992  TRAC65       Counter:       1   Parms: SMR     MR      
 Computing Diagnostic #   1004  TRAC66       Counter:       1   Parms: SMR     MR      
 Computing Diagnostic #   1016  TRAC67       Counter:       1   Parms: SMR     MR      
 Computing Diagnostic #   1028  TRAC68       Counter:       1   Parms: SMR     MR      
 Computing Diagnostic #   1040  TRAC69       Counter:       1   Parms: SMR     MR      
 Computing Diagnostic #   1052  TRAC70       Counter:       1   Parms: SMR     MR      
 Computing Diagnostic #   1064  TRAC71       Counter:       1   Parms: SMR     MR      
 Computing Diagnostic #   1076  TRAC72       Counter:       1   Parms: SMR     MR      
 Computing Diagnostic #   1088  TRAC73       Counter:       1   Parms: SMR     MR      
 Computing Diagnostic #   1100  TRAC74       Counter:       1   Parms: SMR     MR      
 Computing Diagnostic #   1112  TRAC75       Counter:       1   Parms: SMR     MR      
 Computing Diagnostic #   1124  TRAC76       Counter:       1   Parms: SMR     MR      
 Computing Diagnostic #   1136  TRAC77       Counter:       1   Parms: SMR     MR      
 Computing Diagnostic #   1148  TRAC78       Counter:       1   Parms: SMR     MR      
 Computing Diagnostic #   1160  TRAC79       Counter:       1   Parms: SMR     MR      
 Computing Diagnostic #   1172  TRAC80       Counter:       1   Parms: SMR     MR      
 Computing Diagnostic #   1184  TRAC81       Counter:       1   Parms: SMR     MR      
 Computing Diagnostic #   1196  TRAC82       Counter:       1   Parms: SMR     MR      
 Computing Diagnostic #   1208  TRAC83       Counter:       1   Parms: SMR     MR      
 Computing Diagnostic #   1220  TRAC84       Counter:       1   Parms: SMR     MR      
 Computing Diagnostic #   1232  TRAC85       Counter:       1   Parms: SMR     MR      
 Computing Diagnostic #   1244  TRAC86       Counter:       1   Parms: SMR     MR      
 Computing Diagnostic #   1256  TRAC87       Counter:       1   Parms: SMR     MR      
 Computing Diagnostic #   1268  TRAC88       Counter:       1   Parms: SMR     MR      
 Computing Diagnostic #   1280  TRAC89       Counter:       1   Parms: SMR     MR      
 Computing Diagnostic #   1292  TRAC90       Counter:       1   Parms: SMR     MR      
 Computing Diagnostic #   1304  TRAC91       Counter:       1   Parms: SMR     MR      
 Computing Diagnostic #   1316  TRAC92       Counter:       1   Parms: SMR     MR      
 Computing Diagnostic #   1328  TRAC93       Counter:       1   Parms: SMR     MR      
 Computing Diagnostic #   1340  TRAC94       Counter:       1   Parms: SMR     MR      
 Computing Diagnostic #   1352  TRAC95       Counter:       1   Parms: SMR     MR      
 Computing Diagnostic #   1364  TRAC96       Counter:       1   Parms: SMR     MR      
 Computing Diagnostic #   1376  TRAC97       Counter:       1   Parms: SMR     MR      
 Computing Diagnostic #   1393  PAR01        Counter:       8   Parms: SM P    MR      
 Computing Diagnostic #   1400  DIC_c01      Counter:       4   Parms: SM P    MR      
 Computing Diagnostic #   1411  DIC_c02      Counter:       4   Parms: SM P    MR      
 Computing Diagnostic #   1401  c01_DOC      Counter:       4   Parms: SM P    MR      
 Computing Diagnostic #   1412  c02_DOC      Counter:       4   Parms: SM P    MR      
 Computing Diagnostic #   1402  c01_POC      Counter:       4   Parms: SM P    MR      
 Computing Diagnostic #   1413  c02_POC      Counter:       4   Parms: SM P    MR      
 Computing Diagnostic #   1392  PARF         Counter:       4   Parms: SM P    MR      
 Computing Diagnostic #   1389  atten        Counter:       4   Parms: SM P    MR      
 Computing Diagnostic #   1391  surfPAR      Counter:       4   Parms: SM P    MR      
 Computing Diagnostic #   1390  exfPAR       Counter:       1   Parms: SM P    MR      
 Computing Diagnostic #   1394  limn01       Counter:       4   Parms: SM P    MR      
 Computing Diagnostic #   1395  limp01       Counter:       4   Parms: SM P    MR      
 Computing Diagnostic #   1396  limsi01      Counter:       4   Parms: SM P    MR      
 Computing Diagnostic #   1397  limfe01      Counter:       4   Parms: SM P    MR      
 Computing Diagnostic #   1398  limI01       Counter:       4   Parms: SM P    MR      
 Computing Diagnostic #   1399  limT01       Counter:       4   Parms: SM P    MR      
 Computing Diagnostic #   1403  c01_c        Counter:       4   Parms: SM P    MR      
 Computing Diagnostic #   1414  c02_c        Counter:       4   Parms: SM P    MR      
 Computing Diagnostic #   1426  c_c03        Counter:       4   Parms: SM P    MR      
 Computing Diagnostic #   1437  c_c04        Counter:       4   Parms: SM P    MR      
 Computing Diagnostic #   2274  c_DOC        Counter:       4   Parms: SM P    MR      
 Computing Diagnostic #   2275  c_POC        Counter:       4   Parms: SM P    MR      
 Computing Diagnostic #   2276  c_PIC        Counter:       4   Parms: SM P    MR      
 Computing Diagnostic #   2277  n_DON        Counter:       4   Parms: SM P    MR      
 Computing Diagnostic #   2278  n_PON        Counter:       4   Parms: SM P    MR      
 Computing Diagnostic #   2279  p_DOP        Counter:       4   Parms: SM P    MR      
 Computing Diagnostic #   2280  p_POP        Counter:       4   Parms: SM P    MR      
(PID.TID 0000.0001) // =======================================================
(PID.TID 0000.0001) // Begin MONITOR EXF statistics
(PID.TID 0000.0001) // =======================================================
(PID.TID 0000.0001) %MON exf_tsnumber                 =               5644802
(PID.TID 0000.0001) %MON exf_time_sec                 =   2.4385544640000000E+11
(PID.TID 0000.0001) %MON exf_ustress_max              =   0.0000000000000000E+00
(PID.TID 0000.0001) %MON exf_ustress_min              =   0.0000000000000000E+00
(PID.TID 0000.0001) %MON exf_ustress_mean             =   0.0000000000000000E+00
(PID.TID 0000.0001) %MON exf_ustress_sd               =   0.0000000000000000E+00
(PID.TID 0000.0001) %MON exf_ustress_del2             =   0.0000000000000000E+00
(PID.TID 0000.0001) %MON exf_vstress_max              =   0.0000000000000000E+00
(PID.TID 0000.0001) %MON exf_vstress_min              =   0.0000000000000000E+00
(PID.TID 0000.0001) %MON exf_vstress_mean             =   0.0000000000000000E+00
(PID.TID 0000.0001) %MON exf_vstress_sd               =   0.0000000000000000E+00
(PID.TID 0000.0001) %MON exf_vstress_del2             =   0.0000000000000000E+00
(PID.TID 0000.0001) %MON exf_hflux_max                =   0.0000000000000000E+00
(PID.TID 0000.0001) %MON exf_hflux_min                =   0.0000000000000000E+00
(PID.TID 0000.0001) %MON exf_hflux_mean               =   0.0000000000000000E+00
(PID.TID 0000.0001) %MON exf_hflux_sd                 =   0.0000000000000000E+00
(PID.TID 0000.0001) %MON exf_hflux_del2               =   0.0000000000000000E+00
(PID.TID 0000.0001) %MON exf_sflux_max                =   0.0000000000000000E+00
(PID.TID 0000.0001) %MON exf_sflux_min                =   0.0000000000000000E+00
(PID.TID 0000.0001) %MON exf_sflux_mean               =   0.0000000000000000E+00
(PID.TID 0000.0001) %MON exf_sflux_sd                 =   0.0000000000000000E+00
(PID.TID 0000.0001) %MON exf_sflux_del2               =   0.0000000000000000E+00
(PID.TID 0000.0001) %MON exf_uwind_max                =   0.0000000000000000E+00
(PID.TID 0000.0001) %MON exf_uwind_min                =   0.0000000000000000E+00
(PID.TID 0000.0001) %MON exf_uwind_mean               =   0.0000000000000000E+00
(PID.TID 0000.0001) %MON exf_uwind_sd                 =   0.0000000000000000E+00
(PID.TID 0000.0001) %MON exf_uwind_del2               =   0.0000000000000000E+00
(PID.TID 0000.0001) %MON exf_vwind_max                =   0.0000000000000000E+00
(PID.TID 0000.0001) %MON exf_vwind_min                =   0.0000000000000000E+00
(PID.TID 0000.0001) %MON exf_vwind_mean               =   0.0000000000000000E+00
(PID.TID 0000.0001) %MON exf_vwind_sd                 =   0.0000000000000000E+00
(PID.TID 0000.0001) %MON exf_vwind_del2               =   0.0000000000000000E+00
(PID.TID 0000.0001) %MON exf_wspeed_max               =   0.0000000000000000E+00
(PID.TID 0000.0001) %MON exf_wspeed_min               =   0.0000000000000000E+00
(PID.TID 0000.0001) %MON exf_wspeed_mean              =   0.0000000000000000E+00
(PID.TID 0000.0001) %MON exf_wspeed_sd                =   0.0000000000000000E+00
(PID.TID 0000.0001) %MON exf_wspeed_del2              =   0.0000000000000000E+00
(PID.TID 0000.0001) %MON exf_evap_max                 =   0.0000000000000000E+00
(PID.TID 0000.0001) %MON exf_evap_min                 =   0.0000000000000000E+00
(PID.TID 0000.0001) %MON exf_evap_mean                =   0.0000000000000000E+00
(PID.TID 0000.0001) %MON exf_evap_sd                  =   0.0000000000000000E+00
(PID.TID 0000.0001) %MON exf_evap_del2                =   0.0000000000000000E+00
(PID.TID 0000.0001) // =======================================================
(PID.TID 0000.0001) // End MONITOR EXF statistics
(PID.TID 0000.0001) // =======================================================
 exf          12           1  0.46666666666666667       0.53333333333333333     
 exf          12           1  0.46666666666666667       0.53333333333333333     
 exf          12           1  0.46666666666666667       0.53333333333333333     
 cg2d: Sum(rhs),rhsMax =  -6.04723467745316E-07  7.55204046322845E+00
(PID.TID 0000.0001)      cg2d_init_res =   1.61532326759945E-02
(PID.TID 0000.0001)      cg2d_iters(min,last) =      -1      22
(PID.TID 0000.0001)      cg2d_last_res =   7.02252539214965E-14
 PAR           1   0.0000000000000000        0.0000000000000000        1.0000000000000000     
 PAR           2   0.0000000000000000        0.0000000000000000        1.4000000000000001     
 PAR           3   0.0000000000000000        0.0000000000000000        2.0000000000000000     
 PAR           4   0.0000000000000000        0.0000000000000000        2.8000000000000003     
 PAR           5   0.0000000000000000        0.0000000000000000        3.8000000000000003     
 PAR           6   0.0000000000000000        0.0000000000000000        4.7999999999999998     
 PAR           7   0.0000000000000000        0.0000000000000000        5.7999999999999998     
 PAR           8   0.0000000000000000        0.0000000000000000        6.7999999999999998     
 PAR           9   0.0000000000000000        0.0000000000000000        7.7999999999999998     
 PAR          10   0.0000000000000000        0.0000000000000000        8.8000000000000007     
 PAR          11   0.0000000000000000        0.0000000000000000        9.8000000000000007     
 PAR          12   0.0000000000000000        0.0000000000000000        10.800000000000001     
 PAR          13   0.0000000000000000        0.0000000000000000        11.800000000000001     
 PAR          14   0.0000000000000000        0.0000000000000000        12.800000000000001     
 PAR          15   0.0000000000000000        0.0000000000000000        13.800000000000001     
 fe   0.0000000000000000     
 fe   0.0000000000000000        0.0000000000000000     
 PAR           1   0.0000000000000000        0.0000000000000000        1.0000000000000000     
 PAR           2   0.0000000000000000        0.0000000000000000        1.4000000000000001     
 PAR           3   0.0000000000000000        0.0000000000000000        2.0000000000000000     
 PAR           4   0.0000000000000000        0.0000000000000000        2.8000000000000003     
 PAR           5   0.0000000000000000        0.0000000000000000        3.8000000000000003     
 PAR           6   0.0000000000000000        0.0000000000000000        4.7999999999999998     
 PAR           7   0.0000000000000000        0.0000000000000000        5.7999999999999998     
 PAR           8   0.0000000000000000        0.0000000000000000        6.7999999999999998     
 PAR           9   0.0000000000000000        0.0000000000000000        7.7999999999999998     
 PAR          10   0.0000000000000000        0.0000000000000000        8.8000000000000007     
 PAR          11   0.0000000000000000        0.0000000000000000        9.8000000000000007     
 PAR          12   0.0000000000000000        0.0000000000000000        10.800000000000001     
 PAR          13   0.0000000000000000        0.0000000000000000        11.800000000000001     
 PAR          14   0.0000000000000000        0.0000000000000000        12.800000000000001     
 PAR          15   0.0000000000000000        0.0000000000000000        13.800000000000001     
 fe   0.0000000000000000     
 fe   0.0000000000000000        0.0000000000000000     
 PAR           1   0.0000000000000000        0.0000000000000000        1.0000000000000000     
 PAR           2   0.0000000000000000        0.0000000000000000        1.4000000000000001     
 PAR           3   0.0000000000000000        0.0000000000000000        2.0000000000000000     
 PAR           4   0.0000000000000000        0.0000000000000000        2.8000000000000003     
 PAR           5   0.0000000000000000        0.0000000000000000        3.8000000000000003     
 PAR           6   0.0000000000000000        0.0000000000000000        4.7999999999999998     
 PAR           7   0.0000000000000000        0.0000000000000000        5.7999999999999998     
 PAR           8   0.0000000000000000        0.0000000000000000        6.7999999999999998     
 PAR           9   0.0000000000000000        0.0000000000000000        7.7999999999999998     
 PAR          10   0.0000000000000000        0.0000000000000000        8.8000000000000007     
 PAR          11   0.0000000000000000        0.0000000000000000        9.8000000000000007     
 PAR          12   0.0000000000000000        0.0000000000000000        10.800000000000001     
 PAR          13   0.0000000000000000        0.0000000000000000        11.800000000000001     
 PAR          14   0.0000000000000000        0.0000000000000000        12.800000000000001     
 PAR          15   0.0000000000000000        0.0000000000000000        13.800000000000001     
 fe   0.0000000000000000     
 fe   0.0000000000000000        0.0000000000000000     
 PAR           1   0.0000000000000000        0.0000000000000000        1.0000000000000000     
 PAR           2   0.0000000000000000        0.0000000000000000        1.4000000000000001     
 PAR           3   0.0000000000000000        0.0000000000000000        2.0000000000000000     
 PAR           4   0.0000000000000000        0.0000000000000000        2.8000000000000003     
 PAR           5   0.0000000000000000        0.0000000000000000        3.8000000000000003     
 PAR           6   0.0000000000000000        0.0000000000000000        4.7999999999999998     
 PAR           7   0.0000000000000000        0.0000000000000000        5.7999999999999998     
 PAR           8   0.0000000000000000        0.0000000000000000        6.7999999999999998     
 PAR           9   0.0000000000000000        0.0000000000000000        7.7999999999999998     
 PAR          10   0.0000000000000000        0.0000000000000000        8.8000000000000007     
 PAR          11   0.0000000000000000        0.0000000000000000        9.8000000000000007     
 PAR          12   0.0000000000000000        0.0000000000000000        10.800000000000001     
 PAR          13   0.0000000000000000        0.0000000000000000        11.800000000000001     
 PAR          14   0.0000000000000000        0.0000000000000000        12.800000000000001     
 PAR          15   0.0000000000000000        0.0000000000000000        13.800000000000001     
 fe   0.0000000000000000     
 fe   0.0000000000000000        0.0000000000000000     
 PAR           1   0.0000000000000000        0.0000000000000000        1.0000000000000000     
 PAR           2   0.0000000000000000        0.0000000000000000        1.4000000000000001     
 PAR           3   0.0000000000000000        0.0000000000000000        2.0000000000000000     
 PAR           4   0.0000000000000000        0.0000000000000000        2.8000000000000003     
 PAR           5   0.0000000000000000        0.0000000000000000        3.8000000000000003     
 PAR           6   0.0000000000000000        0.0000000000000000        4.7999999999999998     
 PAR           7   0.0000000000000000        0.0000000000000000        5.7999999999999998     
 PAR           8   0.0000000000000000        0.0000000000000000        6.7999999999999998     
 PAR           9   0.0000000000000000        0.0000000000000000        7.7999999999999998     
 PAR          10   0.0000000000000000        0.0000000000000000        8.8000000000000007     
 PAR          11   0.0000000000000000        0.0000000000000000        9.8000000000000007     
 PAR          12   0.0000000000000000        0.0000000000000000        10.800000000000001     
 PAR          13   0.0000000000000000        0.0000000000000000        11.800000000000001     
 PAR          14   0.0000000000000000        0.0000000000000000        12.800000000000001     
 PAR          15   0.0000000000000000        0.0000000000000000        13.800000000000001     
 fe   0.0000000000000000     
 fe   0.0000000000000000        0.0000000000000000     
 PAR           1   0.0000000000000000        0.0000000000000000        1.0000000000000000     
 PAR           2   0.0000000000000000        0.0000000000000000        1.4000000000000001     
 PAR           3   0.0000000000000000        0.0000000000000000        2.0000000000000000     
 PAR           4   0.0000000000000000        0.0000000000000000        2.8000000000000003     
 PAR           5   0.0000000000000000        0.0000000000000000        3.8000000000000003     
 PAR           6   0.0000000000000000        0.0000000000000000        4.7999999999999998     
 PAR           7   0.0000000000000000        0.0000000000000000        5.7999999999999998     
 PAR           8   0.0000000000000000        0.0000000000000000        6.7999999999999998     
 PAR           9   0.0000000000000000        0.0000000000000000        7.7999999999999998     
 PAR          10   0.0000000000000000        0.0000000000000000        8.8000000000000007     
 PAR          11   0.0000000000000000        0.0000000000000000        9.8000000000000007     
 PAR          12   0.0000000000000000        0.0000000000000000        10.800000000000001     
 PAR          13   0.0000000000000000        0.0000000000000000        11.800000000000001     
 PAR          14   0.0000000000000000        0.0000000000000000        12.800000000000001     
 PAR          15   0.0000000000000000        0.0000000000000000        13.800000000000001     
 fe   0.0000000000000000     
 fe   0.0000000000000000        0.0000000000000000     
 PAR           1   0.0000000000000000        0.0000000000000000        1.0000000000000000     
 PAR           2   0.0000000000000000        0.0000000000000000        1.4000000000000001     
 PAR           3   0.0000000000000000        0.0000000000000000        2.0000000000000000     
 PAR           4   0.0000000000000000        0.0000000000000000        2.8000000000000003     
 PAR           5   0.0000000000000000        0.0000000000000000        3.8000000000000003     
 PAR           6   0.0000000000000000        0.0000000000000000        4.7999999999999998     
 PAR           7   0.0000000000000000        0.0000000000000000        5.7999999999999998     
 PAR           8   0.0000000000000000        0.0000000000000000        6.7999999999999998     
 PAR           9   0.0000000000000000        0.0000000000000000        7.7999999999999998     
 PAR          10   0.0000000000000000        0.0000000000000000        8.8000000000000007     
 PAR          11   0.0000000000000000        0.0000000000000000        9.8000000000000007     
 PAR          12   0.0000000000000000        0.0000000000000000        10.800000000000001     
 PAR          13   0.0000000000000000        0.0000000000000000        11.800000000000001     
 PAR          14   0.0000000000000000        0.0000000000000000        12.800000000000001     
 PAR          15   0.0000000000000000        0.0000000000000000        13.800000000000001     
 fe   0.0000000000000000     
 fe   0.0000000000000000        0.0000000000000000     
 PAR           1   0.0000000000000000        0.0000000000000000        1.0000000000000000     
 PAR           2   0.0000000000000000        0.0000000000000000        1.4000000000000001     
 PAR           3   0.0000000000000000        0.0000000000000000        2.0000000000000000     
 PAR           4   0.0000000000000000        0.0000000000000000        2.8000000000000003     
 PAR           5   0.0000000000000000        0.0000000000000000        3.8000000000000003     
 PAR           6   0.0000000000000000        0.0000000000000000        4.7999999999999998     
 PAR           7   0.0000000000000000        0.0000000000000000        5.7999999999999998     
 PAR           8   0.0000000000000000        0.0000000000000000        6.7999999999999998     
 PAR           9   0.0000000000000000        0.0000000000000000        7.7999999999999998     
 PAR          10   0.0000000000000000        0.0000000000000000        8.8000000000000007     
 PAR          11   0.0000000000000000        0.0000000000000000        9.8000000000000007     
 PAR          12   0.0000000000000000        0.0000000000000000        10.800000000000001     
 PAR          13   0.0000000000000000        0.0000000000000000        11.800000000000001     
 PAR          14   0.0000000000000000        0.0000000000000000        12.800000000000001     
 PAR          15   0.0000000000000000        0.0000000000000000        13.800000000000001     
 fe   0.0000000000000000     
 fe   0.0000000000000000        0.0000000000000000     
(PID.TID 0000.0001) // =======================================================
(PID.TID 0000.0001) // Begin MONITOR dynamic field statistics
(PID.TID 0000.0001) // =======================================================
(PID.TID 0000.0001) %MON time_tsnumber                =               5644803
(PID.TID 0000.0001) %MON time_secondsf                =   2.4385548960000000E+11
(PID.TID 0000.0001) %MON dynstat_eta_max              =   9.3627511411143571E-01
(PID.TID 0000.0001) %MON dynstat_eta_min              =  -1.7303081983849677E+00
(PID.TID 0000.0001) %MON dynstat_eta_mean             =   1.6246248406942184E-10
(PID.TID 0000.0001) %MON dynstat_eta_sd               =   6.5166423101284721E-01
(PID.TID 0000.0001) %MON dynstat_eta_del2             =   9.2978030837644120E-04
(PID.TID 0000.0001) %MON dynstat_uvel_max             =   1.5527053826383980E-01
(PID.TID 0000.0001) %MON dynstat_uvel_min             =  -1.8458253844747516E-01
(PID.TID 0000.0001) %MON dynstat_uvel_mean            =   2.9497278082226516E-03
(PID.TID 0000.0001) %MON dynstat_uvel_sd              =   1.3886039880533611E-02
(PID.TID 0000.0001) %MON dynstat_uvel_del2            =   3.8121351024631769E-05
(PID.TID 0000.0001) %MON dynstat_vvel_max             =   1.1192165236508403E-01
(PID.TID 0000.0001) %MON dynstat_vvel_min             =  -1.5050999023495387E-01
(PID.TID 0000.0001) %MON dynstat_vvel_mean            =  -1.9057176606634979E-04
(PID.TID 0000.0001) %MON dynstat_vvel_sd              =   6.3535592977871109E-03
(PID.TID 0000.0001) %MON dynstat_vvel_del2            =   2.6604415547363919E-05
(PID.TID 0000.0001) %MON dynstat_wvel_max             =   4.3069881910660924E-05
(PID.TID 0000.0001) %MON dynstat_wvel_min             =  -6.4933649181608870E-05
(PID.TID 0000.0001) %MON dynstat_wvel_mean            =  -2.1115974767071877E-22
(PID.TID 0000.0001) %MON dynstat_wvel_sd              =   1.9024936037943132E-06
(PID.TID 0000.0001) %MON dynstat_wvel_del2            =   1.3090179011922919E-08
(PID.TID 0000.0001) %MON dynstat_theta_max            =   2.9958612940492877E+01
(PID.TID 0000.0001) %MON dynstat_theta_min            =  -2.1380939415309035E+00
(PID.TID 0000.0001) %MON dynstat_theta_mean           =   3.7552531475465143E+00
(PID.TID 0000.0001) %MON dynstat_theta_sd             =   5.1498964516694512E+00
(PID.TID 0000.0001) %MON dynstat_theta_del2           =   2.2493972621527810E-03
(PID.TID 0000.0001) %MON dynstat_salt_max             =   3.7553303036339692E+01
(PID.TID 0000.0001) %MON dynstat_salt_min             =   3.1355025863735388E+01
(PID.TID 0000.0001) %MON dynstat_salt_mean            =   3.4543283510303489E+01
(PID.TID 0000.0001) %MON dynstat_salt_sd              =   3.5868211106621217E-01
(PID.TID 0000.0001) %MON dynstat_salt_del2            =   3.8170524704096497E-04
(PID.TID 0000.0001) %MON forcing_qnet_max             =   4.5157683105468749E+02
(PID.TID 0000.0001) %MON forcing_qnet_min             =  -2.1235058186848960E+02
(PID.TID 0000.0001) %MON forcing_qnet_mean            =  -1.7624071088847383E+01
(PID.TID 0000.0001) %MON forcing_qnet_sd              =   1.1579672925848007E+02
(PID.TID 0000.0001) %MON forcing_qnet_del2            =   2.7323208045697345E-01
(PID.TID 0000.0001) %MON forcing_qsw_max              =   0.0000000000000000E+00
(PID.TID 0000.0001) %MON forcing_qsw_min              =   0.0000000000000000E+00
(PID.TID 0000.0001) %MON forcing_qsw_mean             =   0.0000000000000000E+00
(PID.TID 0000.0001) %MON forcing_qsw_sd               =   0.0000000000000000E+00
(PID.TID 0000.0001) %MON forcing_qsw_del2             =   0.0000000000000000E+00
(PID.TID 0000.0001) %MON forcing_empmr_max            =   6.9206222512718796E-05
(PID.TID 0000.0001) %MON forcing_empmr_min            =  -1.5544422772961752E-04
(PID.TID 0000.0001) %MON forcing_empmr_mean           =   1.2460352661810301E-14
(PID.TID 0000.0001) %MON forcing_empmr_sd             =   2.4700019777611149E-05
(PID.TID 0000.0001) %MON forcing_empmr_del2           =   1.1591736879228609E-07
(PID.TID 0000.0001) %MON forcing_fu_max               =   2.6907762686411540E-01
(PID.TID 0000.0001) %MON forcing_fu_min               =  -1.5713627139727276E-01
(PID.TID 0000.0001) %MON forcing_fu_mean              =   1.7813586480809756E-02
(PID.TID 0000.0001) %MON forcing_fu_sd                =   8.9604501838055614E-02
(PID.TID 0000.0001) %MON forcing_fu_del2              =   2.4838319211937843E-04
(PID.TID 0000.0001) %MON forcing_fv_max               =   1.9811773399511973E-01
(PID.TID 0000.0001) %MON forcing_fv_min               =  -1.5963796973228456E-01
(PID.TID 0000.0001) %MON forcing_fv_mean              =  -6.4134326874516071E-03
(PID.TID 0000.0001) %MON forcing_fv_sd                =   4.4374188740912861E-02
(PID.TID 0000.0001) %MON forcing_fv_del2              =   1.7989439238480173E-04
(PID.TID 0000.0001) %MON advcfl_uvel_max              =   4.0096976349648032E-02
(PID.TID 0000.0001) %MON advcfl_vvel_max              =   2.0794081573418818E-02
(PID.TID 0000.0001) %MON advcfl_wvel_max              =   1.3125757740578838E-02
(PID.TID 0000.0001) %MON advcfl_W_hf_max              =   1.5469643051396486E-02
(PID.TID 0000.0001) %MON pe_b_mean                    =   5.8619724244049639E-04
(PID.TID 0000.0001) %MON ke_max                       =   1.7866696361139592E-02
(PID.TID 0000.0001) %MON ke_mean                      =   1.1145686354722776E-04
(PID.TID 0000.0001) %MON ke_vol                       =   1.1739855207380157E+18
(PID.TID 0000.0001) %MON vort_r_min                   =  -5.5656497615471459E-07
(PID.TID 0000.0001) %MON vort_r_max                   =   6.2144325835222531E-07
(PID.TID 0000.0001) %MON vort_a_mean                  =  -2.5798915502264611E-05
(PID.TID 0000.0001) %MON vort_a_sd                    =   7.3558772971964243E-05
(PID.TID 0000.0001) %MON vort_p_mean                  =  -3.0020960747216264E-05
(PID.TID 0000.0001) %MON vort_p_sd                    =   9.8090576983568892E-05
(PID.TID 0000.0001) %MON surfExpan_theta_mean         =  -2.4900710895047899E-07
(PID.TID 0000.0001) %MON surfExpan_salt_mean          =   2.6665901662146824E-08
(PID.TID 0000.0001) // =======================================================
(PID.TID 0000.0001) // End MONITOR dynamic field statistics
(PID.TID 0000.0001) // =======================================================
(PID.TID 0000.0001) // =======================================================
(PID.TID 0000.0001) // Begin MONITOR ptracer field statistics
(PID.TID 0000.0001) // =======================================================
(PID.TID 0000.0001) %MON trcstat_ptracer01_max        =   2.0001129603115016E+03
(PID.TID 0000.0001) %MON trcstat_ptracer01_min        =   1.9950063273804678E+03
(PID.TID 0000.0001) %MON trcstat_ptracer01_mean       =   1.9999917950400202E+03
(PID.TID 0000.0001) %MON trcstat_ptracer01_sd         =   1.0333425190096178E-01
(PID.TID 0000.0001) %MON trcstat_ptracer01_del2       =   6.1112268932007928E-04
(PID.TID 0000.0001) %MON trcstat_ptracer02_max        =   3.0724431698189880E-01
(PID.TID 0000.0001) %MON trcstat_ptracer02_min        =   4.3931156844401429E-08
(PID.TID 0000.0001) %MON trcstat_ptracer02_mean       =   3.1119983964228762E-03
(PID.TID 0000.0001) %MON trcstat_ptracer02_sd         =   1.8711080687969915E-02
(PID.TID 0000.0001) %MON trcstat_ptracer02_del2       =   6.2745870276547546E-05
(PID.TID 0000.0001) %MON trcstat_ptracer03_max        =   2.5528662879166095E+00
(PID.TID 0000.0001) %MON trcstat_ptracer03_min        =   2.7599211904880812E-06
(PID.TID 0000.0001) %MON trcstat_ptracer03_mean       =   3.0464960291115818E-02
(PID.TID 0000.0001) %MON trcstat_ptracer03_sd         =   8.9627609092463784E-02
(PID.TID 0000.0001) %MON trcstat_ptracer03_del2       =   1.2399293503104100E-04
(PID.TID 0000.0001) %MON trcstat_ptracer04_max        =   5.5520297433733028E+01
(PID.TID 0000.0001) %MON trcstat_ptracer04_min        =   2.3764048315558041E-04
(PID.TID 0000.0001) %MON trcstat_ptracer04_mean       =   3.0322046654409768E+01
(PID.TID 0000.0001) %MON trcstat_ptracer04_sd         =   9.3039017818375154E+00
(PID.TID 0000.0001) %MON trcstat_ptracer04_del2       =   7.1672739201710228E-03
(PID.TID 0000.0001) %MON trcstat_ptracer05_max        =   3.4906018377276391E+00
(PID.TID 0000.0001) %MON trcstat_ptracer05_min        =   4.6740289096990843E-02
(PID.TID 0000.0001) %MON trcstat_ptracer05_mean       =   2.1106150425508998E+00
(PID.TID 0000.0001) %MON trcstat_ptracer05_sd         =   6.4919534198600259E-01
(PID.TID 0000.0001) %MON trcstat_ptracer05_del2       =   3.7199748262486813E-04
(PID.TID 0000.0001) %MON trcstat_ptracer06_max        =   1.8839939925528057E+02
(PID.TID 0000.0001) %MON trcstat_ptracer06_min        =   4.2393406505627368E-01
(PID.TID 0000.0001) %MON trcstat_ptracer06_mean       =   8.3739841566917434E+01
(PID.TID 0000.0001) %MON trcstat_ptracer06_sd         =   4.9672316121344728E+01
(PID.TID 0000.0001) %MON trcstat_ptracer06_del2       =   1.6747709893412857E-02
(PID.TID 0000.0001) %MON trcstat_ptracer07_max        =   1.3877564687828166E-03
(PID.TID 0000.0001) %MON trcstat_ptracer07_min        =   3.7910255172607654E-06
(PID.TID 0000.0001) %MON trcstat_ptracer07_mean       =   3.2963149067239729E-04
(PID.TID 0000.0001) %MON trcstat_ptracer07_sd         =   2.1703156003588482E-04
(PID.TID 0000.0001) %MON trcstat_ptracer07_del2       =   2.1184130391514860E-07
(PID.TID 0000.0001) %MON trcstat_ptracer08_max        =   5.7229035776863935E+00
(PID.TID 0000.0001) %MON trcstat_ptracer08_min        =   1.0666784921829035E-08
(PID.TID 0000.0001) %MON trcstat_ptracer08_mean       =   4.1089363009647615E-03
(PID.TID 0000.0001) %MON trcstat_ptracer08_sd         =   4.1669938756944996E-02
(PID.TID 0000.0001) %MON trcstat_ptracer08_del2       =   6.2197944827253535E-04
(PID.TID 0000.0001) %MON trcstat_ptracer09_max        =   2.0439833565125998E+00
(PID.TID 0000.0001) %MON trcstat_ptracer09_min        =  -2.4584544868185409E-03
(PID.TID 0000.0001) %MON trcstat_ptracer09_mean       =   1.7412177133824310E-02
(PID.TID 0000.0001) %MON trcstat_ptracer09_sd         =   1.1011482931529552E-01
(PID.TID 0000.0001) %MON trcstat_ptracer09_del2       =   3.2126628855619593E-04
(PID.TID 0000.0001) %MON trcstat_ptracer10_max        =   1.2774895978203749E-01
(PID.TID 0000.0001) %MON trcstat_ptracer10_min        =  -1.5365340542615881E-04
(PID.TID 0000.0001) %MON trcstat_ptracer10_mean       =   1.0882610708640194E-03
(PID.TID 0000.0001) %MON trcstat_ptracer10_sd         =   6.8821768322059702E-03
(PID.TID 0000.0001) %MON trcstat_ptracer10_del2       =   2.0079143034762246E-05
(PID.TID 0000.0001) %MON trcstat_ptracer11_max        =   8.1083873743322305E-05
(PID.TID 0000.0001) %MON trcstat_ptracer11_min        =  -1.3083803421978381E-07
(PID.TID 0000.0001) %MON trcstat_ptracer11_mean       =   3.1549223501493439E-07
(PID.TID 0000.0001) %MON trcstat_ptracer11_sd         =   2.1881216465445027E-06
(PID.TID 0000.0001) %MON trcstat_ptracer11_del2       =   8.8982000338601757E-09
(PID.TID 0000.0001) %MON trcstat_ptracer12_max        =   4.9463050447294279E+00
(PID.TID 0000.0001) %MON trcstat_ptracer12_min        =   5.8898507538391426E-09
(PID.TID 0000.0001) %MON trcstat_ptracer12_mean       =   2.5477890649590810E-03
(PID.TID 0000.0001) %MON trcstat_ptracer12_sd         =   2.8581260734138154E-02
(PID.TID 0000.0001) %MON trcstat_ptracer12_del2       =   5.1048862670509051E-04
(PID.TID 0000.0001) %MON trcstat_ptracer13_max        =   2.9743655222212757E+00
(PID.TID 0000.0001) %MON trcstat_ptracer13_min        =   1.3449404368717409E-06
(PID.TID 0000.0001) %MON trcstat_ptracer13_mean       =   2.6640922672097996E-02
(PID.TID 0000.0001) %MON trcstat_ptracer13_sd         =   5.7293246879906570E-02
(PID.TID 0000.0001) %MON trcstat_ptracer13_del2       =   2.7027455713449412E-04
(PID.TID 0000.0001) %MON trcstat_ptracer14_max        =   1.8589784513882973E-01
(PID.TID 0000.0001) %MON trcstat_ptracer14_min        =   8.4058777304483804E-08
(PID.TID 0000.0001) %MON trcstat_ptracer14_mean       =   1.6650576670061248E-03
(PID.TID 0000.0001) %MON trcstat_ptracer14_sd         =   3.5808279299941606E-03
(PID.TID 0000.0001) %MON trcstat_ptracer14_del2       =   1.6892159820905882E-05
(PID.TID 0000.0001) %MON trcstat_ptracer15_max        =   4.0430396068988472E+01
(PID.TID 0000.0001) %MON trcstat_ptracer15_min        =  -1.0445979099679312E-01
(PID.TID 0000.0001) %MON trcstat_ptracer15_mean       =   1.5104289060886802E-01
(PID.TID 0000.0001) %MON trcstat_ptracer15_sd         =   4.0958263898237696E-01
(PID.TID 0000.0001) %MON trcstat_ptracer15_del2       =   2.1491030981690656E-03
(PID.TID 0000.0001) %MON trcstat_ptracer16_max        =   1.9270786827653387E-04
(PID.TID 0000.0001) %MON trcstat_ptracer16_min        =   1.3551253262290980E-11
(PID.TID 0000.0001) %MON trcstat_ptracer16_mean       =   7.4538167337800349E-07
(PID.TID 0000.0001) %MON trcstat_ptracer16_sd         =   2.3537246332333617E-06
(PID.TID 0000.0001) %MON trcstat_ptracer16_del2       =   1.2654886670835723E-08
(PID.TID 0000.0001) %MON trcstat_ptracer17_max        =   0.0000000000000000E+00
(PID.TID 0000.0001) %MON trcstat_ptracer17_min        =   0.0000000000000000E+00
(PID.TID 0000.0001) %MON trcstat_ptracer17_mean       =   0.0000000000000000E+00
(PID.TID 0000.0001) %MON trcstat_ptracer17_sd         =   0.0000000000000000E+00
(PID.TID 0000.0001) %MON trcstat_ptracer17_del2       =   0.0000000000000000E+00
(PID.TID 0000.0001) %MON trcstat_ptracer18_max        =   4.8196898736580207E-01
(PID.TID 0000.0001) %MON trcstat_ptracer18_min        =   1.2008899217604546E-09
(PID.TID 0000.0001) %MON trcstat_ptracer18_mean       =   4.4847297436343954E-04
(PID.TID 0000.0001) %MON trcstat_ptracer18_sd         =   4.3121704579048821E-03
(PID.TID 0000.0001) %MON trcstat_ptracer18_del2       =   5.7596868054918231E-05
(PID.TID 0000.0001) %MON trcstat_ptracer19_max        =   4.9727493991366450E-01
(PID.TID 0000.0001) %MON trcstat_ptracer19_min        =   1.1973025772239301E-09
(PID.TID 0000.0001) %MON trcstat_ptracer19_mean       =   4.6023010266710057E-04
(PID.TID 0000.0001) %MON trcstat_ptracer19_sd         =   4.4630994280118247E-03
(PID.TID 0000.0001) %MON trcstat_ptracer19_del2       =   5.7848440834892833E-05
(PID.TID 0000.0001) %MON trcstat_ptracer20_max        =   5.1021205786126711E-01
(PID.TID 0000.0001) %MON trcstat_ptracer20_min        =   1.2008899220422726E-09
(PID.TID 0000.0001) %MON trcstat_ptracer20_mean       =   4.5040263267253716E-04
(PID.TID 0000.0001) %MON trcstat_ptracer20_sd         =   4.3604529838149400E-03
(PID.TID 0000.0001) %MON trcstat_ptracer20_del2       =   5.9409862194283396E-05
(PID.TID 0000.0001) %MON trcstat_ptracer21_max        =   4.9727493991366445E-01
(PID.TID 0000.0001) %MON trcstat_ptracer21_min        =   1.1973025772239301E-09
(PID.TID 0000.0001) %MON trcstat_ptracer21_mean       =   4.3163365785347949E-04
(PID.TID 0000.0001) %MON trcstat_ptracer21_sd         =   4.1480031293280231E-03
(PID.TID 0000.0001) %MON trcstat_ptracer21_del2       =   5.6887610477512521E-05
(PID.TID 0000.0001) %MON trcstat_ptracer22_max        =   4.9727493991368305E-01
(PID.TID 0000.0001) %MON trcstat_ptracer22_min        =   1.1973025772239301E-09
(PID.TID 0000.0001) %MON trcstat_ptracer22_mean       =   5.5396536886515566E-04
(PID.TID 0000.0001) %MON trcstat_ptracer22_sd         =   5.7793684895871061E-03
(PID.TID 0000.0001) %MON trcstat_ptracer22_del2       =   6.3558147979670418E-05
(PID.TID 0000.0001) %MON trcstat_ptracer23_max        =   4.9727493991366445E-01
(PID.TID 0000.0001) %MON trcstat_ptracer23_min        =   1.1973025772239301E-09
(PID.TID 0000.0001) %MON trcstat_ptracer23_mean       =   4.7214625653961925E-04
(PID.TID 0000.0001) %MON trcstat_ptracer23_sd         =   4.5332861928290957E-03
(PID.TID 0000.0001) %MON trcstat_ptracer23_del2       =   5.8120400019473186E-05
(PID.TID 0000.0001) %MON trcstat_ptracer24_max        =   5.1007635694958364E-01
(PID.TID 0000.0001) %MON trcstat_ptracer24_min        =   1.2008899220422726E-09
(PID.TID 0000.0001) %MON trcstat_ptracer24_mean       =   5.3877510740753059E-04
(PID.TID 0000.0001) %MON trcstat_ptracer24_sd         =   5.4285645941649103E-03
(PID.TID 0000.0001) %MON trcstat_ptracer24_del2       =   6.1993494940508365E-05
(PID.TID 0000.0001) %MON trcstat_ptracer25_max        =   4.9727493991366528E-01
(PID.TID 0000.0001) %MON trcstat_ptracer25_min        =   1.1973025772239301E-09
(PID.TID 0000.0001) %MON trcstat_ptracer25_mean       =   4.4608737499928468E-04
(PID.TID 0000.0001) %MON trcstat_ptracer25_sd         =   4.3328262592794492E-03
(PID.TID 0000.0001) %MON trcstat_ptracer25_del2       =   5.7968554658788298E-05
(PID.TID 0000.0001) %MON trcstat_ptracer26_max        =   4.9727493991366450E-01
(PID.TID 0000.0001) %MON trcstat_ptracer26_min        =   1.1973025772239301E-09
(PID.TID 0000.0001) %MON trcstat_ptracer26_mean       =   4.5648564185648053E-04
(PID.TID 0000.0001) %MON trcstat_ptracer26_sd         =   4.4232976576656325E-03
(PID.TID 0000.0001) %MON trcstat_ptracer26_del2       =   5.7856755366524548E-05
(PID.TID 0000.0001) %MON trcstat_ptracer27_max        =   4.8180652350628994E-01
(PID.TID 0000.0001) %MON trcstat_ptracer27_min        =   1.2008899217604546E-09
(PID.TID 0000.0001) %MON trcstat_ptracer27_mean       =   4.7382394550898703E-04
(PID.TID 0000.0001) %MON trcstat_ptracer27_sd         =   4.5592798701807671E-03
(PID.TID 0000.0001) %MON trcstat_ptracer27_del2       =   5.6998342119814702E-05
(PID.TID 0000.0001) %MON trcstat_ptracer28_max        =   4.9727493991366573E-01
(PID.TID 0000.0001) %MON trcstat_ptracer28_min        =   1.1973025772239301E-09
(PID.TID 0000.0001) %MON trcstat_ptracer28_mean       =   5.3030054199517253E-04
(PID.TID 0000.0001) %MON trcstat_ptracer28_sd         =   5.5203325771103909E-03
(PID.TID 0000.0001) %MON trcstat_ptracer28_del2       =   6.4566122323472415E-05
(PID.TID 0000.0001) %MON trcstat_ptracer29_max        =   4.9727493991366445E-01
(PID.TID 0000.0001) %MON trcstat_ptracer29_min        =   1.1973025772239301E-09
(PID.TID 0000.0001) %MON trcstat_ptracer29_mean       =   4.4905732266646353E-04
(PID.TID 0000.0001) %MON trcstat_ptracer29_sd         =   4.3004489333509765E-03
(PID.TID 0000.0001) %MON trcstat_ptracer29_del2       =   5.7505642002044943E-05
(PID.TID 0000.0001) %MON trcstat_ptracer30_max        =   4.9727493991366423E-01
(PID.TID 0000.0001) %MON trcstat_ptracer30_min        =   1.1973025772239301E-09
(PID.TID 0000.0001) %MON trcstat_ptracer30_mean       =   4.2495657432549400E-04
(PID.TID 0000.0001) %MON trcstat_ptracer30_sd         =   4.0938208141177036E-03
(PID.TID 0000.0001) %MON trcstat_ptracer30_del2       =   5.6627707151708872E-05
(PID.TID 0000.0001) %MON trcstat_ptracer31_max        =   5.1007635694957687E-01
(PID.TID 0000.0001) %MON trcstat_ptracer31_min        =   1.2008899220422726E-09
(PID.TID 0000.0001) %MON trcstat_ptracer31_mean       =   6.9725029446791008E-04
(PID.TID 0000.0001) %MON trcstat_ptracer31_sd         =   6.8770049880145529E-03
(PID.TID 0000.0001) %MON trcstat_ptracer31_del2       =   6.1695794495403492E-05
(PID.TID 0000.0001) %MON trcstat_ptracer32_max        =   4.8180063923930155E-01
(PID.TID 0000.0001) %MON trcstat_ptracer32_min        =   1.2008899217604546E-09
(PID.TID 0000.0001) %MON trcstat_ptracer32_mean       =   6.2382879851491564E-04
(PID.TID 0000.0001) %MON trcstat_ptracer32_sd         =   6.3861967231812009E-03
(PID.TID 0000.0001) %MON trcstat_ptracer32_del2       =   6.1328043487940780E-05
(PID.TID 0000.0001) %MON trcstat_ptracer33_max        =   4.9728133484134962E-01
(PID.TID 0000.0001) %MON trcstat_ptracer33_min        =   1.1973025772239301E-09
(PID.TID 0000.0001) %MON trcstat_ptracer33_mean       =   4.1766393986288026E-04
(PID.TID 0000.0001) %MON trcstat_ptracer33_sd         =   4.0285393296410040E-03
(PID.TID 0000.0001) %MON trcstat_ptracer33_del2       =   5.6387807715037792E-05
(PID.TID 0000.0001) %MON trcstat_ptracer34_max        =   4.8180063923930061E-01
(PID.TID 0000.0001) %MON trcstat_ptracer34_min        =   1.2008899217604546E-09
(PID.TID 0000.0001) %MON trcstat_ptracer34_mean       =   7.7474044427731643E-04
(PID.TID 0000.0001) %MON trcstat_ptracer34_sd         =   8.4102568298473814E-03
(PID.TID 0000.0001) %MON trcstat_ptracer34_del2       =   6.6111665400482223E-05
(PID.TID 0000.0001) %MON trcstat_ptracer35_max        =   4.8180063923930017E-01
(PID.TID 0000.0001) %MON trcstat_ptracer35_min        =   1.2008899217604546E-09
(PID.TID 0000.0001) %MON trcstat_ptracer35_mean       =   6.5688508464296436E-04
(PID.TID 0000.0001) %MON trcstat_ptracer35_sd         =   6.8013900369567719E-03
(PID.TID 0000.0001) %MON trcstat_ptracer35_del2       =   6.4028033751672644E-05
(PID.TID 0000.0001) %MON trcstat_ptracer36_max        =   4.9727493991366528E-01
(PID.TID 0000.0001) %MON trcstat_ptracer36_min        =   1.1973025772239301E-09
(PID.TID 0000.0001) %MON trcstat_ptracer36_mean       =   5.2927253995834161E-04
(PID.TID 0000.0001) %MON trcstat_ptracer36_sd         =   5.3649354940805581E-03
(PID.TID 0000.0001) %MON trcstat_ptracer36_del2       =   6.2410268042765047E-05
(PID.TID 0000.0001) %MON trcstat_ptracer37_max        =   4.9727888462448500E-01
(PID.TID 0000.0001) %MON trcstat_ptracer37_min        =   1.1973025772239301E-09
(PID.TID 0000.0001) %MON trcstat_ptracer37_mean       =   4.3837780516960470E-04
(PID.TID 0000.0001) %MON trcstat_ptracer37_sd         =   4.2322279413906146E-03
(PID.TID 0000.0001) %MON trcstat_ptracer37_del2       =   5.7782354994314099E-05
(PID.TID 0000.0001) %MON trcstat_ptracer38_max        =   4.9727493991366445E-01
(PID.TID 0000.0001) %MON trcstat_ptracer38_min        =   1.1973025772239301E-09
(PID.TID 0000.0001) %MON trcstat_ptracer38_mean       =   4.2096413908584236E-04
(PID.TID 0000.0001) %MON trcstat_ptracer38_sd         =   4.0587868908009478E-03
(PID.TID 0000.0001) %MON trcstat_ptracer38_del2       =   5.6482815081538456E-05
(PID.TID 0000.0001) %MON trcstat_ptracer39_max        =   4.8180063923930339E-01
(PID.TID 0000.0001) %MON trcstat_ptracer39_min        =   1.2008899217604546E-09
(PID.TID 0000.0001) %MON trcstat_ptracer39_mean       =   7.5127652088893512E-04
(PID.TID 0000.0001) %MON trcstat_ptracer39_sd         =   8.2683538537803372E-03
(PID.TID 0000.0001) %MON trcstat_ptracer39_del2       =   6.7035879111940793E-05
(PID.TID 0000.0001) %MON trcstat_ptracer40_max        =   4.9727493991366450E-01
(PID.TID 0000.0001) %MON trcstat_ptracer40_min        =   1.1973025772239301E-09
(PID.TID 0000.0001) %MON trcstat_ptracer40_mean       =   4.5270032675277452E-04
(PID.TID 0000.0001) %MON trcstat_ptracer40_sd         =   4.3817112053851914E-03
(PID.TID 0000.0001) %MON trcstat_ptracer40_del2       =   5.7700538638790641E-05
(PID.TID 0000.0001) %MON trcstat_ptracer41_max        =   4.9727493991366445E-01
(PID.TID 0000.0001) %MON trcstat_ptracer41_min        =   1.1973025772239301E-09
(PID.TID 0000.0001) %MON trcstat_ptracer41_mean       =   4.4709552415579245E-04
(PID.TID 0000.0001) %MON trcstat_ptracer41_sd         =   4.2759335963408222E-03
(PID.TID 0000.0001) %MON trcstat_ptracer41_del2       =   5.7387003884784419E-05
(PID.TID 0000.0001) %MON trcstat_ptracer42_max        =   4.9727493991366528E-01
(PID.TID 0000.0001) %MON trcstat_ptracer42_min        =   1.1973025772239301E-09
(PID.TID 0000.0001) %MON trcstat_ptracer42_mean       =   4.4741016017202422E-04
(PID.TID 0000.0001) %MON trcstat_ptracer42_sd         =   4.3497790613381783E-03
(PID.TID 0000.0001) %MON trcstat_ptracer42_del2       =   5.8060118104818388E-05
(PID.TID 0000.0001) %MON trcstat_ptracer43_max        =   4.9727493991366450E-01
(PID.TID 0000.0001) %MON trcstat_ptracer43_min        =   1.1973025772239301E-09
(PID.TID 0000.0001) %MON trcstat_ptracer43_mean       =   6.2058246538371936E-04
(PID.TID 0000.0001) %MON trcstat_ptracer43_sd         =   6.2532590967056588E-03
(PID.TID 0000.0001) %MON trcstat_ptracer43_del2       =   6.2314429226477074E-05
(PID.TID 0000.0001) %MON trcstat_ptracer44_max        =   4.8190675194878524E-01
(PID.TID 0000.0001) %MON trcstat_ptracer44_min        =   1.2008899217604546E-09
(PID.TID 0000.0001) %MON trcstat_ptracer44_mean       =   4.3369237924759015E-04
(PID.TID 0000.0001) %MON trcstat_ptracer44_sd         =   4.1411244566137333E-03
(PID.TID 0000.0001) %MON trcstat_ptracer44_del2       =   5.6172125633848313E-05
(PID.TID 0000.0001) %MON trcstat_ptracer45_max        =   4.8180063923928773E-01
(PID.TID 0000.0001) %MON trcstat_ptracer45_min        =   1.2008899217604546E-09
(PID.TID 0000.0001) %MON trcstat_ptracer45_mean       =   5.1099709683086734E-04
(PID.TID 0000.0001) %MON trcstat_ptracer45_sd         =   4.7604265337711279E-03
(PID.TID 0000.0001) %MON trcstat_ptracer45_del2       =   5.6500155090665196E-05
(PID.TID 0000.0001) %MON trcstat_ptracer46_max        =   4.9736887065880214E-01
(PID.TID 0000.0001) %MON trcstat_ptracer46_min        =   1.1973025772239301E-09
(PID.TID 0000.0001) %MON trcstat_ptracer46_mean       =   4.3025794926713530E-04
(PID.TID 0000.0001) %MON trcstat_ptracer46_sd         =   4.1607342621756320E-03
(PID.TID 0000.0001) %MON trcstat_ptracer46_del2       =   5.7410335965569534E-05
(PID.TID 0000.0001) %MON trcstat_ptracer47_max        =   4.9727493991366462E-01
(PID.TID 0000.0001) %MON trcstat_ptracer47_min        =   1.1973025772239301E-09
(PID.TID 0000.0001) %MON trcstat_ptracer47_mean       =   4.3778433998919563E-04
(PID.TID 0000.0001) %MON trcstat_ptracer47_sd         =   4.1946014163807954E-03
(PID.TID 0000.0001) %MON trcstat_ptracer47_del2       =   5.7223033273690089E-05
(PID.TID 0000.0001) %MON trcstat_ptracer48_max        =   5.1007635694957509E-01
(PID.TID 0000.0001) %MON trcstat_ptracer48_min        =   1.2008899220422726E-09
(PID.TID 0000.0001) %MON trcstat_ptracer48_mean       =   4.9977453954873070E-04
(PID.TID 0000.0001) %MON trcstat_ptracer48_sd         =   4.8688374044018679E-03
(PID.TID 0000.0001) %MON trcstat_ptracer48_del2       =   5.9467522819688230E-05
(PID.TID 0000.0001) %MON trcstat_ptracer49_max        =   4.9727493991366473E-01
(PID.TID 0000.0001) %MON trcstat_ptracer49_min        =   1.1973025772239301E-09
(PID.TID 0000.0001) %MON trcstat_ptracer49_mean       =   4.9159628855469865E-04
(PID.TID 0000.0001) %MON trcstat_ptracer49_sd         =   4.8621419430134143E-03
(PID.TID 0000.0001) %MON trcstat_ptracer49_del2       =   6.0831909192188463E-05
(PID.TID 0000.0001) %MON trcstat_ptracer50_max        =   4.9727493991366528E-01
(PID.TID 0000.0001) %MON trcstat_ptracer50_min        =   1.1973025772239301E-09
(PID.TID 0000.0001) %MON trcstat_ptracer50_mean       =   4.4826836697674471E-04
(PID.TID 0000.0001) %MON trcstat_ptracer50_sd         =   4.3642374111327129E-03
(PID.TID 0000.0001) %MON trcstat_ptracer50_del2       =   5.8029883077031539E-05
(PID.TID 0000.0001) %MON trcstat_ptracer51_max        =   4.8180063923928473E-01
(PID.TID 0000.0001) %MON trcstat_ptracer51_min        =   1.2008899217604546E-09
(PID.TID 0000.0001) %MON trcstat_ptracer51_mean       =   4.9496080800355601E-04
(PID.TID 0000.0001) %MON trcstat_ptracer51_sd         =   4.4943363603382270E-03
(PID.TID 0000.0001) %MON trcstat_ptracer51_del2       =   5.5512666050749439E-05
(PID.TID 0000.0001) %MON trcstat_ptracer52_max        =   4.8180063923929950E-01
(PID.TID 0000.0001) %MON trcstat_ptracer52_min        =   1.2008899217604546E-09
(PID.TID 0000.0001) %MON trcstat_ptracer52_mean       =   6.0743237008284532E-04
(PID.TID 0000.0001) %MON trcstat_ptracer52_sd         =   6.1153757346543497E-03
(PID.TID 0000.0001) %MON trcstat_ptracer52_del2       =   6.2676687827624644E-05
(PID.TID 0000.0001) %MON trcstat_ptracer53_max        =   4.9727493991367822E-01
(PID.TID 0000.0001) %MON trcstat_ptracer53_min        =   1.1973025772239301E-09
(PID.TID 0000.0001) %MON trcstat_ptracer53_mean       =   5.7115812866795367E-04
(PID.TID 0000.0001) %MON trcstat_ptracer53_sd         =   5.7860776028261247E-03
(PID.TID 0000.0001) %MON trcstat_ptracer53_del2       =   6.1666394579535226E-05
(PID.TID 0000.0001) %MON trcstat_ptracer54_max        =   4.9727493991366645E-01
(PID.TID 0000.0001) %MON trcstat_ptracer54_min        =   1.1973025772239301E-09
(PID.TID 0000.0001) %MON trcstat_ptracer54_mean       =   4.4281151457863864E-04
(PID.TID 0000.0001) %MON trcstat_ptracer54_sd         =   4.3024577393236466E-03
(PID.TID 0000.0001) %MON trcstat_ptracer54_del2       =   5.7946309024925993E-05
(PID.TID 0000.0001) %MON trcstat_ptracer55_max        =   5.1007635694958053E-01
(PID.TID 0000.0001) %MON trcstat_ptracer55_min        =   1.2008899220422726E-09
(PID.TID 0000.0001) %MON trcstat_ptracer55_mean       =   6.6729405587422639E-04
(PID.TID 0000.0001) %MON trcstat_ptracer55_sd         =   6.8006425429743347E-03
(PID.TID 0000.0001) %MON trcstat_ptracer55_del2       =   6.2846358834068309E-05
(PID.TID 0000.0001) %MON trcstat_ptracer56_max        =   5.1007635694958886E-01
(PID.TID 0000.0001) %MON trcstat_ptracer56_min        =   1.2008899220422726E-09
(PID.TID 0000.0001) %MON trcstat_ptracer56_mean       =   5.5344115052254072E-04
(PID.TID 0000.0001) %MON trcstat_ptracer56_sd         =   5.6415329759798120E-03
(PID.TID 0000.0001) %MON trcstat_ptracer56_del2       =   6.3358306336919114E-05
(PID.TID 0000.0001) %MON trcstat_ptracer57_max        =   4.8180063923928973E-01
(PID.TID 0000.0001) %MON trcstat_ptracer57_min        =   1.2008899217604546E-09
(PID.TID 0000.0001) %MON trcstat_ptracer57_mean       =   5.0363655312528712E-04
(PID.TID 0000.0001) %MON trcstat_ptracer57_sd         =   4.8311379691288034E-03
(PID.TID 0000.0001) %MON trcstat_ptracer57_del2       =   5.6843578202982351E-05
(PID.TID 0000.0001) %MON trcstat_ptracer58_max        =   4.8193815587694006E-01
(PID.TID 0000.0001) %MON trcstat_ptracer58_min        =   1.2008899217604546E-09
(PID.TID 0000.0001) %MON trcstat_ptracer58_mean       =   4.8247215432313176E-04
(PID.TID 0000.0001) %MON trcstat_ptracer58_sd         =   4.7037197281396374E-03
(PID.TID 0000.0001) %MON trcstat_ptracer58_del2       =   5.9411677685697121E-05
(PID.TID 0000.0001) %MON trcstat_ptracer59_max        =   4.8180063923929656E-01
(PID.TID 0000.0001) %MON trcstat_ptracer59_min        =   1.2008899217604546E-09
(PID.TID 0000.0001) %MON trcstat_ptracer59_mean       =   6.8755099532062127E-04
(PID.TID 0000.0001) %MON trcstat_ptracer59_sd         =   6.9974138174536179E-03
(PID.TID 0000.0001) %MON trcstat_ptracer59_del2       =   6.1457901543419133E-05
(PID.TID 0000.0001) %MON trcstat_ptracer60_max        =   5.1007635694958531E-01
(PID.TID 0000.0001) %MON trcstat_ptracer60_min        =   1.2008899220422726E-09
(PID.TID 0000.0001) %MON trcstat_ptracer60_mean       =   6.6952493934537092E-04
(PID.TID 0000.0001) %MON trcstat_ptracer60_sd         =   6.9974693050425191E-03
(PID.TID 0000.0001) %MON trcstat_ptracer60_del2       =   6.4485868769995983E-05
(PID.TID 0000.0001) %MON trcstat_ptracer61_max        =   5.1007635694958198E-01
(PID.TID 0000.0001) %MON trcstat_ptracer61_min        =   1.2008899220422726E-09
(PID.TID 0000.0001) %MON trcstat_ptracer61_mean       =   5.1915496456189040E-04
(PID.TID 0000.0001) %MON trcstat_ptracer61_sd         =   5.1956621374451041E-03
(PID.TID 0000.0001) %MON trcstat_ptracer61_del2       =   6.1013843599824253E-05
(PID.TID 0000.0001) %MON trcstat_ptracer62_max        =   5.1007635694958053E-01
(PID.TID 0000.0001) %MON trcstat_ptracer62_min        =   1.2008899220422726E-09
(PID.TID 0000.0001) %MON trcstat_ptracer62_mean       =   5.0460734229545914E-04
(PID.TID 0000.0001) %MON trcstat_ptracer62_sd         =   5.0178564317099640E-03
(PID.TID 0000.0001) %MON trcstat_ptracer62_del2       =   6.0648017683337134E-05
(PID.TID 0000.0001) %MON trcstat_ptracer63_max        =   4.8180342835045203E-01
(PID.TID 0000.0001) %MON trcstat_ptracer63_min        =   1.2008899217604546E-09
(PID.TID 0000.0001) %MON trcstat_ptracer63_mean       =   4.3251179331245084E-04
(PID.TID 0000.0001) %MON trcstat_ptracer63_sd         =   4.0821242854056387E-03
(PID.TID 0000.0001) %MON trcstat_ptracer63_del2       =   5.5249734218269129E-05
(PID.TID 0000.0001) %MON trcstat_ptracer64_max        =   4.9727493991366450E-01
(PID.TID 0000.0001) %MON trcstat_ptracer64_min        =   1.1973025772239301E-09
(PID.TID 0000.0001) %MON trcstat_ptracer64_mean       =   4.7294409088527808E-04
(PID.TID 0000.0001) %MON trcstat_ptracer64_sd         =   4.5673560887725603E-03
(PID.TID 0000.0001) %MON trcstat_ptracer64_del2       =   5.8306332109471021E-05
(PID.TID 0000.0001) %MON trcstat_ptracer65_max        =   5.1007635694958353E-01
(PID.TID 0000.0001) %MON trcstat_ptracer65_min        =   1.2008899220422726E-09
(PID.TID 0000.0001) %MON trcstat_ptracer65_mean       =   5.5941792024372095E-04
(PID.TID 0000.0001) %MON trcstat_ptracer65_sd         =   5.5951043563593752E-03
(PID.TID 0000.0001) %MON trcstat_ptracer65_del2       =   6.2648804620592824E-05
(PID.TID 0000.0001) %MON trcstat_ptracer66_max        =   5.1007635694956965E-01
(PID.TID 0000.0001) %MON trcstat_ptracer66_min        =   1.2008899220422726E-09
(PID.TID 0000.0001) %MON trcstat_ptracer66_mean       =   4.5403522252535799E-04
(PID.TID 0000.0001) %MON trcstat_ptracer66_sd         =   4.3433628058447736E-03
(PID.TID 0000.0001) %MON trcstat_ptracer66_del2       =   5.7999527750102854E-05
(PID.TID 0000.0001) %MON trcstat_ptracer67_max        =   5.1007635694957765E-01
(PID.TID 0000.0001) %MON trcstat_ptracer67_min        =   1.2008899220422726E-09
(PID.TID 0000.0001) %MON trcstat_ptracer67_mean       =   5.0356487996406404E-04
(PID.TID 0000.0001) %MON trcstat_ptracer67_sd         =   4.9633615413895099E-03
(PID.TID 0000.0001) %MON trcstat_ptracer67_del2       =   5.9957394527815835E-05
(PID.TID 0000.0001) %MON trcstat_ptracer68_max        =   4.9727493991364591E-01
(PID.TID 0000.0001) %MON trcstat_ptracer68_min        =   1.1973025772239301E-09
(PID.TID 0000.0001) %MON trcstat_ptracer68_mean       =   4.2704128871909428E-04
(PID.TID 0000.0001) %MON trcstat_ptracer68_sd         =   4.1395182393352235E-03
(PID.TID 0000.0001) %MON trcstat_ptracer68_del2       =   5.6848795658990742E-05
(PID.TID 0000.0001) %MON trcstat_ptracer69_max        =   5.1007635694958653E-01
(PID.TID 0000.0001) %MON trcstat_ptracer69_min        =   1.2008899220422726E-09
(PID.TID 0000.0001) %MON trcstat_ptracer69_mean       =   5.5204799014136794E-04
(PID.TID 0000.0001) %MON trcstat_ptracer69_sd         =   5.5971282612601418E-03
(PID.TID 0000.0001) %MON trcstat_ptracer69_del2       =   6.2923369382300159E-05
(PID.TID 0000.0001) %MON trcstat_ptracer70_max        =   4.8189579402646371E-01
(PID.TID 0000.0001) %MON trcstat_ptracer70_min        =   1.2008899217604546E-09
(PID.TID 0000.0001) %MON trcstat_ptracer70_mean       =   4.6198686842092697E-04
(PID.TID 0000.0001) %MON trcstat_ptracer70_sd         =   4.4169802785172111E-03
(PID.TID 0000.0001) %MON trcstat_ptracer70_del2       =   5.7157407492527855E-05
(PID.TID 0000.0001) %MON trcstat_ptracer71_max        =   4.9727493991368416E-01
(PID.TID 0000.0001) %MON trcstat_ptracer71_min        =   1.1973025772239301E-09
(PID.TID 0000.0001) %MON trcstat_ptracer71_mean       =   5.3424784514919657E-04
(PID.TID 0000.0001) %MON trcstat_ptracer71_sd         =   5.5644566504607995E-03
(PID.TID 0000.0001) %MON trcstat_ptracer71_del2       =   6.3562393082475694E-05
(PID.TID 0000.0001) %MON trcstat_ptracer72_max        =   4.9727493991366450E-01
(PID.TID 0000.0001) %MON trcstat_ptracer72_min        =   1.1973025772239301E-09
(PID.TID 0000.0001) %MON trcstat_ptracer72_mean       =   5.1373516096212403E-04
(PID.TID 0000.0001) %MON trcstat_ptracer72_sd         =   5.0720540738754998E-03
(PID.TID 0000.0001) %MON trcstat_ptracer72_del2       =   6.0790478023834545E-05
(PID.TID 0000.0001) %MON trcstat_ptracer73_max        =   4.9727493991366462E-01
(PID.TID 0000.0001) %MON trcstat_ptracer73_min        =   1.1973025772239301E-09
(PID.TID 0000.0001) %MON trcstat_ptracer73_mean       =   5.7523462598630943E-04
(PID.TID 0000.0001) %MON trcstat_ptracer73_sd         =   5.7368284500307325E-03
(PID.TID 0000.0001) %MON trcstat_ptracer73_del2       =   6.0577500852863625E-05
(PID.TID 0000.0001) %MON trcstat_ptracer74_max        =   4.9727493991366423E-01
(PID.TID 0000.0001) %MON trcstat_ptracer74_min        =   1.1973025772239301E-09
(PID.TID 0000.0001) %MON trcstat_ptracer74_mean       =   4.6205787750806831E-04
(PID.TID 0000.0001) %MON trcstat_ptracer74_sd         =   4.4147246294522925E-03
(PID.TID 0000.0001) %MON trcstat_ptracer74_del2       =   5.7533994721757105E-05
(PID.TID 0000.0001) %MON trcstat_ptracer75_max        =   4.8180063923928740E-01
(PID.TID 0000.0001) %MON trcstat_ptracer75_min        =   1.2008899217604546E-09
(PID.TID 0000.0001) %MON trcstat_ptracer75_mean       =   5.4082816716706874E-04
(PID.TID 0000.0001) %MON trcstat_ptracer75_sd         =   4.9689413584727516E-03
(PID.TID 0000.0001) %MON trcstat_ptracer75_del2       =   5.6470448072470220E-05
(PID.TID 0000.0001) %MON trcstat_ptracer76_max        =   5.1021956780422684E-01
(PID.TID 0000.0001) %MON trcstat_ptracer76_min        =   1.2008899220422726E-09
(PID.TID 0000.0001) %MON trcstat_ptracer76_mean       =   4.8414999240977601E-04
(PID.TID 0000.0001) %MON trcstat_ptracer76_sd         =   4.7469029645790181E-03
(PID.TID 0000.0001) %MON trcstat_ptracer76_del2       =   6.1466448578353063E-05
(PID.TID 0000.0001) %MON trcstat_ptracer77_max        =   4.9727493991366528E-01
(PID.TID 0000.0001) %MON trcstat_ptracer77_min        =   1.1973025772239301E-09
(PID.TID 0000.0001) %MON trcstat_ptracer77_mean       =   4.5230133545471528E-04
(PID.TID 0000.0001) %MON trcstat_ptracer77_sd         =   4.3977528138071827E-03
(PID.TID 0000.0001) %MON trcstat_ptracer77_del2       =   5.8253629807428167E-05
(PID.TID 0000.0001) %MON trcstat_ptracer78_max        =   4.8180063923929717E-01
(PID.TID 0000.0001) %MON trcstat_ptracer78_min        =   1.2008899217604546E-09
(PID.TID 0000.0001) %MON trcstat_ptracer78_mean       =   5.3053817375425935E-04
(PID.TID 0000.0001) %MON trcstat_ptracer78_sd         =   5.2917576256342478E-03
(PID.TID 0000.0001) %MON trcstat_ptracer78_del2       =   5.9363855680396921E-05
(PID.TID 0000.0001) %MON trcstat_ptracer79_max        =   5.1007635694958398E-01
(PID.TID 0000.0001) %MON trcstat_ptracer79_min        =   1.2008899220422726E-09
(PID.TID 0000.0001) %MON trcstat_ptracer79_mean       =   6.7609637897057405E-04
(PID.TID 0000.0001) %MON trcstat_ptracer79_sd         =   7.0405294618334979E-03
(PID.TID 0000.0001) %MON trcstat_ptracer79_del2       =   6.4155959169971948E-05
(PID.TID 0000.0001) %MON trcstat_ptracer80_max        =   5.1007635694958009E-01
(PID.TID 0000.0001) %MON trcstat_ptracer80_min        =   1.2008899220422726E-09
(PID.TID 0000.0001) %MON trcstat_ptracer80_mean       =   6.0077036560954246E-04
(PID.TID 0000.0001) %MON trcstat_ptracer80_sd         =   5.9790427683338067E-03
(PID.TID 0000.0001) %MON trcstat_ptracer80_del2       =   6.3111221822866851E-05
(PID.TID 0000.0001) %MON trcstat_ptracer81_max        =   4.9731371436154642E-01
(PID.TID 0000.0001) %MON trcstat_ptracer81_min        =   1.1973025772239301E-09
(PID.TID 0000.0001) %MON trcstat_ptracer81_mean       =   4.3862116485138687E-04
(PID.TID 0000.0001) %MON trcstat_ptracer81_sd         =   4.2085358973100303E-03
(PID.TID 0000.0001) %MON trcstat_ptracer81_del2       =   5.7382068024991748E-05
(PID.TID 0000.0001) %MON trcstat_ptracer82_max        =   4.9727493991366473E-01
(PID.TID 0000.0001) %MON trcstat_ptracer82_min        =   1.1973025772239301E-09
(PID.TID 0000.0001) %MON trcstat_ptracer82_mean       =   5.0337708601681450E-04
(PID.TID 0000.0001) %MON trcstat_ptracer82_sd         =   4.9965297532172858E-03
(PID.TID 0000.0001) %MON trcstat_ptracer82_del2       =   6.1157995298934670E-05
(PID.TID 0000.0001) %MON trcstat_ptracer83_max        =   4.9727493991366423E-01
(PID.TID 0000.0001) %MON trcstat_ptracer83_min        =   1.1973025772239301E-09
(PID.TID 0000.0001) %MON trcstat_ptracer83_mean       =   4.2064747278027675E-04
(PID.TID 0000.0001) %MON trcstat_ptracer83_sd         =   4.0545002521644828E-03
(PID.TID 0000.0001) %MON trcstat_ptracer83_del2       =   5.6460028000470511E-05
(PID.TID 0000.0001) %MON trcstat_ptracer84_max        =   5.1007635694957820E-01
(PID.TID 0000.0001) %MON trcstat_ptracer84_min        =   1.2008899220422726E-09
(PID.TID 0000.0001) %MON trcstat_ptracer84_mean       =   5.2029221134367216E-04
(PID.TID 0000.0001) %MON trcstat_ptracer84_sd         =   5.1287415810314530E-03
(PID.TID 0000.0001) %MON trcstat_ptracer84_del2       =   6.0242857328260932E-05
(PID.TID 0000.0001) %MON trcstat_ptracer85_max        =   4.9727493991366445E-01
(PID.TID 0000.0001) %MON trcstat_ptracer85_min        =   1.1973025772239301E-09
(PID.TID 0000.0001) %MON trcstat_ptracer85_mean       =   4.3205887063729189E-04
(PID.TID 0000.0001) %MON trcstat_ptracer85_sd         =   4.1595754899705064E-03
(PID.TID 0000.0001) %MON trcstat_ptracer85_del2       =   5.6937646449569040E-05
(PID.TID 0000.0001) %MON trcstat_ptracer86_max        =   4.9729527462851530E-01
(PID.TID 0000.0001) %MON trcstat_ptracer86_min        =   1.1973025772239301E-09
(PID.TID 0000.0001) %MON trcstat_ptracer86_mean       =   4.1735671005022713E-04
(PID.TID 0000.0001) %MON trcstat_ptracer86_sd         =   4.0592572108979329E-03
(PID.TID 0000.0001) %MON trcstat_ptracer86_del2       =   5.6454574757291584E-05
(PID.TID 0000.0001) %MON trcstat_ptracer87_max        =   4.9727493991366412E-01
(PID.TID 0000.0001) %MON trcstat_ptracer87_min        =   1.1973025772239301E-09
(PID.TID 0000.0001) %MON trcstat_ptracer87_mean       =   4.4639153077705103E-04
(PID.TID 0000.0001) %MON trcstat_ptracer87_sd         =   4.2579413739093968E-03
(PID.TID 0000.0001) %MON trcstat_ptracer87_del2       =   5.7017614320868955E-05
(PID.TID 0000.0001) %MON trcstat_ptracer88_max        =   4.9727493991366462E-01
(PID.TID 0000.0001) %MON trcstat_ptracer88_min        =   1.1973025772239301E-09
(PID.TID 0000.0001) %MON trcstat_ptracer88_mean       =   6.2700436681211379E-04
(PID.TID 0000.0001) %MON trcstat_ptracer88_sd         =   6.2593212641159964E-03
(PID.TID 0000.0001) %MON trcstat_ptracer88_del2       =   6.1555235924523139E-05
(PID.TID 0000.0001) %MON trcstat_ptracer89_max        =   4.8180063923930394E-01
(PID.TID 0000.0001) %MON trcstat_ptracer89_min        =   1.2008899217604546E-09
(PID.TID 0000.0001) %MON trcstat_ptracer89_mean       =   5.8946808175678006E-04
(PID.TID 0000.0001) %MON trcstat_ptracer89_sd         =   6.0109815972538986E-03
(PID.TID 0000.0001) %MON trcstat_ptracer89_del2       =   6.3527661896713237E-05
(PID.TID 0000.0001) %MON trcstat_ptracer90_max        =   4.8180063923929173E-01
(PID.TID 0000.0001) %MON trcstat_ptracer90_min        =   1.2008899217604546E-09
(PID.TID 0000.0001) %MON trcstat_ptracer90_mean       =   5.1238352230048741E-04
(PID.TID 0000.0001) %MON trcstat_ptracer90_sd         =   4.9574671637678206E-03
(PID.TID 0000.0001) %MON trcstat_ptracer90_del2       =   5.7599385518893009E-05
(PID.TID 0000.0001) %MON trcstat_ptracer91_max        =   5.1017458958593143E-01
(PID.TID 0000.0001) %MON trcstat_ptracer91_min        =   1.2008899220422726E-09
(PID.TID 0000.0001) %MON trcstat_ptracer91_mean       =   4.3598569193177550E-04
(PID.TID 0000.0001) %MON trcstat_ptracer91_sd         =   4.2141618333442184E-03
(PID.TID 0000.0001) %MON trcstat_ptracer91_del2       =   5.8451055461276989E-05
(PID.TID 0000.0001) %MON trcstat_ptracer92_max        =   4.9727493991366389E-01
(PID.TID 0000.0001) %MON trcstat_ptracer92_min        =   1.1973025772239301E-09
(PID.TID 0000.0001) %MON trcstat_ptracer92_mean       =   5.0461505633554379E-04
(PID.TID 0000.0001) %MON trcstat_ptracer92_sd         =   4.6903416286933159E-03
(PID.TID 0000.0001) %MON trcstat_ptracer92_del2       =   5.7177314924457543E-05
(PID.TID 0000.0001) %MON trcstat_ptracer93_max        =   4.9727493991366667E-01
(PID.TID 0000.0001) %MON trcstat_ptracer93_min        =   1.1973025772239301E-09
(PID.TID 0000.0001) %MON trcstat_ptracer93_mean       =   4.8573274519769511E-04
(PID.TID 0000.0001) %MON trcstat_ptracer93_sd         =   4.8705463074558263E-03
(PID.TID 0000.0001) %MON trcstat_ptracer93_del2       =   6.2179410732179281E-05
(PID.TID 0000.0001) %MON trcstat_ptracer94_max        =   4.9727493991366462E-01
(PID.TID 0000.0001) %MON trcstat_ptracer94_min        =   1.1973025772239301E-09
(PID.TID 0000.0001) %MON trcstat_ptracer94_mean       =   4.8493046650022068E-04
(PID.TID 0000.0001) %MON trcstat_ptracer94_sd         =   4.6905651134093694E-03
(PID.TID 0000.0001) %MON trcstat_ptracer94_del2       =   5.8705905820597568E-05
(PID.TID 0000.0001) %MON trcstat_ptracer95_max        =   4.9727493991366528E-01
(PID.TID 0000.0001) %MON trcstat_ptracer95_min        =   1.1973025772239301E-09
(PID.TID 0000.0001) %MON trcstat_ptracer95_mean       =   5.2764502954312574E-04
(PID.TID 0000.0001) %MON trcstat_ptracer95_sd         =   5.4701296404081560E-03
(PID.TID 0000.0001) %MON trcstat_ptracer95_del2       =   6.4144013014841010E-05
(PID.TID 0000.0001) %MON trcstat_ptracer96_max        =   8.1082594630162319E+00
(PID.TID 0000.0001) %MON trcstat_ptracer96_min        =   1.2912287551765992E-08
(PID.TID 0000.0001) %MON trcstat_ptracer96_mean       =   4.7738929026469971E-03
(PID.TID 0000.0001) %MON trcstat_ptracer96_sd         =   5.2103967737333612E-02
(PID.TID 0000.0001) %MON trcstat_ptracer96_del2       =   8.5558214208533733E-04
(PID.TID 0000.0001) %MON trcstat_ptracer97_max        =   8.3295823230947637E+00
(PID.TID 0000.0001) %MON trcstat_ptracer97_min        =   1.2912287550760020E-08
(PID.TID 0000.0001) %MON trcstat_ptracer97_mean       =   4.7872243655172420E-03
(PID.TID 0000.0001) %MON trcstat_ptracer97_sd         =   5.2617394358736670E-02
(PID.TID 0000.0001) %MON trcstat_ptracer97_del2       =   8.7283088090378167E-04
(PID.TID 0000.0001) // =======================================================
(PID.TID 0000.0001) // End MONITOR ptracers field statistics
(PID.TID 0000.0001) // =======================================================
 Computing Diagnostic #    224  TRAC01       Counter:       1   Parms: SMR     MR      
 Computing Diagnostic #    236  TRAC02       Counter:       1   Parms: SMR     MR      
 Computing Diagnostic #    248  TRAC03       Counter:       1   Parms: SMR     MR      
 Computing Diagnostic #    260  TRAC04       Counter:       1   Parms: SMR     MR      
 Computing Diagnostic #    272  TRAC05       Counter:       1   Parms: SMR     MR      
 Computing Diagnostic #    284  TRAC06       Counter:       1   Parms: SMR     MR      
 Computing Diagnostic #    296  TRAC07       Counter:       1   Parms: SMR     MR      
 Computing Diagnostic #    308  TRAC08       Counter:       1   Parms: SMR     MR      
 Computing Diagnostic #    320  TRAC09       Counter:       1   Parms: SMR     MR      
 Computing Diagnostic #    332  TRAC10       Counter:       1   Parms: SMR     MR      
 Computing Diagnostic #    344  TRAC11       Counter:       1   Parms: SMR     MR      
 Computing Diagnostic #    356  TRAC12       Counter:       1   Parms: SMR     MR      
 Computing Diagnostic #    368  TRAC13       Counter:       1   Parms: SMR     MR      
 Computing Diagnostic #    380  TRAC14       Counter:       1   Parms: SMR     MR      
 Computing Diagnostic #    392  TRAC15       Counter:       1   Parms: SMR     MR      
 Computing Diagnostic #    404  TRAC16       Counter:       1   Parms: SMR     MR      
 Computing Diagnostic #    416  TRAC17       Counter:       1   Parms: SMR     MR      
 Computing Diagnostic #    428  TRAC18       Counter:       1   Parms: SMR     MR      
 Computing Diagnostic #    440  TRAC19       Counter:       1   Parms: SMR     MR      
 Computing Diagnostic #    452  TRAC20       Counter:       1   Parms: SMR     MR      
 Computing Diagnostic #    464  TRAC21       Counter:       1   Parms: SMR     MR      
 Computing Diagnostic #    476  TRAC22       Counter:       1   Parms: SMR     MR      
 Computing Diagnostic #    488  TRAC23       Counter:       1   Parms: SMR     MR      
 Computing Diagnostic #    500  TRAC24       Counter:       1   Parms: SMR     MR      
 Computing Diagnostic #    512  TRAC25       Counter:       1   Parms: SMR     MR      
 Computing Diagnostic #    524  TRAC26       Counter:       1   Parms: SMR     MR      
 Computing Diagnostic #    536  TRAC27       Counter:       1   Parms: SMR     MR      
 Computing Diagnostic #    548  TRAC28       Counter:       1   Parms: SMR     MR      
 Computing Diagnostic #    560  TRAC29       Counter:       1   Parms: SMR     MR      
 Computing Diagnostic #    572  TRAC30       Counter:       1   Parms: SMR     MR      
 Computing Diagnostic #    584  TRAC31       Counter:       1   Parms: SMR     MR      
 Computing Diagnostic #    596  TRAC32       Counter:       1   Parms: SMR     MR      
 Computing Diagnostic #    608  TRAC33       Counter:       1   Parms: SMR     MR      
 Computing Diagnostic #    620  TRAC34       Counter:       1   Parms: SMR     MR      
 Computing Diagnostic #    632  TRAC35       Counter:       1   Parms: SMR     MR      
 Computing Diagnostic #    644  TRAC36       Counter:       1   Parms: SMR     MR      
 Computing Diagnostic #    656  TRAC37       Counter:       1   Parms: SMR     MR      
 Computing Diagnostic #    668  TRAC38       Counter:       1   Parms: SMR     MR      
 Computing Diagnostic #    680  TRAC39       Counter:       1   Parms: SMR     MR      
 Computing Diagnostic #    692  TRAC40       Counter:       1   Parms: SMR     MR      
 Computing Diagnostic #    704  TRAC41       Counter:       1   Parms: SMR     MR      
 Computing Diagnostic #    716  TRAC42       Counter:       1   Parms: SMR     MR      
 Computing Diagnostic #    728  TRAC43       Counter:       1   Parms: SMR     MR      
 Computing Diagnostic #    740  TRAC44       Counter:       1   Parms: SMR     MR      
 Computing Diagnostic #    752  TRAC45       Counter:       1   Parms: SMR     MR      
 Computing Diagnostic #    764  TRAC46       Counter:       1   Parms: SMR     MR      
 Computing Diagnostic #    776  TRAC47       Counter:       1   Parms: SMR     MR      
 Computing Diagnostic #    788  TRAC48       Counter:       1   Parms: SMR     MR      
 Computing Diagnostic #    800  TRAC49       Counter:       1   Parms: SMR     MR      
 Computing Diagnostic #    812  TRAC50       Counter:       1   Parms: SMR     MR      
 Computing Diagnostic #    824  TRAC51       Counter:       1   Parms: SMR     MR      
 Computing Diagnostic #    836  TRAC52       Counter:       1   Parms: SMR     MR      
 Computing Diagnostic #    848  TRAC53       Counter:       1   Parms: SMR     MR      
 Computing Diagnostic #    860  TRAC54       Counter:       1   Parms: SMR     MR      
 Computing Diagnostic #    872  TRAC55       Counter:       1   Parms: SMR     MR      
 Computing Diagnostic #    884  TRAC56       Counter:       1   Parms: SMR     MR      
 Computing Diagnostic #    896  TRAC57       Counter:       1   Parms: SMR     MR      
 Computing Diagnostic #    908  TRAC58       Counter:       1   Parms: SMR     MR      
 Computing Diagnostic #    920  TRAC59       Counter:       1   Parms: SMR     MR      
 Computing Diagnostic #    932  TRAC60       Counter:       1   Parms: SMR     MR      
 Computing Diagnostic #    944  TRAC61       Counter:       1   Parms: SMR     MR      
 Computing Diagnostic #    956  TRAC62       Counter:       1   Parms: SMR     MR      
 Computing Diagnostic #    968  TRAC63       Counter:       1   Parms: SMR     MR      
 Computing Diagnostic #    980  TRAC64       Counter:       1   Parms: SMR     MR      
 Computing Diagnostic #    992  TRAC65       Counter:       1   Parms: SMR     MR      
 Computing Diagnostic #   1004  TRAC66       Counter:       1   Parms: SMR     MR      
 Computing Diagnostic #   1016  TRAC67       Counter:       1   Parms: SMR     MR      
 Computing Diagnostic #   1028  TRAC68       Counter:       1   Parms: SMR     MR      
 Computing Diagnostic #   1040  TRAC69       Counter:       1   Parms: SMR     MR      
 Computing Diagnostic #   1052  TRAC70       Counter:       1   Parms: SMR     MR      
 Computing Diagnostic #   1064  TRAC71       Counter:       1   Parms: SMR     MR      
 Computing Diagnostic #   1076  TRAC72       Counter:       1   Parms: SMR     MR      
 Computing Diagnostic #   1088  TRAC73       Counter:       1   Parms: SMR     MR      
 Computing Diagnostic #   1100  TRAC74       Counter:       1   Parms: SMR     MR      
 Computing Diagnostic #   1112  TRAC75       Counter:       1   Parms: SMR     MR      
 Computing Diagnostic #   1124  TRAC76       Counter:       1   Parms: SMR     MR      
 Computing Diagnostic #   1136  TRAC77       Counter:       1   Parms: SMR     MR      
 Computing Diagnostic #   1148  TRAC78       Counter:       1   Parms: SMR     MR      
 Computing Diagnostic #   1160  TRAC79       Counter:       1   Parms: SMR     MR      
 Computing Diagnostic #   1172  TRAC80       Counter:       1   Parms: SMR     MR      
 Computing Diagnostic #   1184  TRAC81       Counter:       1   Parms: SMR     MR      
 Computing Diagnostic #   1196  TRAC82       Counter:       1   Parms: SMR     MR      
 Computing Diagnostic #   1208  TRAC83       Counter:       1   Parms: SMR     MR      
 Computing Diagnostic #   1220  TRAC84       Counter:       1   Parms: SMR     MR      
 Computing Diagnostic #   1232  TRAC85       Counter:       1   Parms: SMR     MR      
 Computing Diagnostic #   1244  TRAC86       Counter:       1   Parms: SMR     MR      
 Computing Diagnostic #   1256  TRAC87       Counter:       1   Parms: SMR     MR      
 Computing Diagnostic #   1268  TRAC88       Counter:       1   Parms: SMR     MR      
 Computing Diagnostic #   1280  TRAC89       Counter:       1   Parms: SMR     MR      
 Computing Diagnostic #   1292  TRAC90       Counter:       1   Parms: SMR     MR      
 Computing Diagnostic #   1304  TRAC91       Counter:       1   Parms: SMR     MR      
 Computing Diagnostic #   1316  TRAC92       Counter:       1   Parms: SMR     MR      
 Computing Diagnostic #   1328  TRAC93       Counter:       1   Parms: SMR     MR      
 Computing Diagnostic #   1340  TRAC94       Counter:       1   Parms: SMR     MR      
 Computing Diagnostic #   1352  TRAC95       Counter:       1   Parms: SMR     MR      
 Computing Diagnostic #   1364  TRAC96       Counter:       1   Parms: SMR     MR      
 Computing Diagnostic #   1376  TRAC97       Counter:       1   Parms: SMR     MR      
 Computing Diagnostic #   1393  PAR01        Counter:       8   Parms: SM P    MR      
 Computing Diagnostic #   1400  DIC_c01      Counter:       4   Parms: SM P    MR      
 Computing Diagnostic #   1411  DIC_c02      Counter:       4   Parms: SM P    MR      
 Computing Diagnostic #   1401  c01_DOC      Counter:       4   Parms: SM P    MR      
 Computing Diagnostic #   1412  c02_DOC      Counter:       4   Parms: SM P    MR      
 Computing Diagnostic #   1402  c01_POC      Counter:       4   Parms: SM P    MR      
 Computing Diagnostic #   1413  c02_POC      Counter:       4   Parms: SM P    MR      
 Computing Diagnostic #   1392  PARF         Counter:       4   Parms: SM P    MR      
 Computing Diagnostic #   1389  atten        Counter:       4   Parms: SM P    MR      
 Computing Diagnostic #   1391  surfPAR      Counter:       4   Parms: SM P    MR      
 Computing Diagnostic #   1390  exfPAR       Counter:       1   Parms: SM P    MR      
 Computing Diagnostic #   1394  limn01       Counter:       4   Parms: SM P    MR      
 Computing Diagnostic #   1395  limp01       Counter:       4   Parms: SM P    MR      
 Computing Diagnostic #   1396  limsi01      Counter:       4   Parms: SM P    MR      
 Computing Diagnostic #   1397  limfe01      Counter:       4   Parms: SM P    MR      
 Computing Diagnostic #   1398  limI01       Counter:       4   Parms: SM P    MR      
 Computing Diagnostic #   1399  limT01       Counter:       4   Parms: SM P    MR      
 Computing Diagnostic #   1403  c01_c        Counter:       4   Parms: SM P    MR      
 Computing Diagnostic #   1414  c02_c        Counter:       4   Parms: SM P    MR      
 Computing Diagnostic #   1426  c_c03        Counter:       4   Parms: SM P    MR      
 Computing Diagnostic #   1437  c_c04        Counter:       4   Parms: SM P    MR      
 Computing Diagnostic #   2274  c_DOC        Counter:       4   Parms: SM P    MR      
 Computing Diagnostic #   2275  c_POC        Counter:       4   Parms: SM P    MR      
 Computing Diagnostic #   2276  c_PIC        Counter:       4   Parms: SM P    MR      
 Computing Diagnostic #   2277  n_DON        Counter:       4   Parms: SM P    MR      
 Computing Diagnostic #   2278  n_PON        Counter:       4   Parms: SM P    MR      
 Computing Diagnostic #   2279  p_DOP        Counter:       4   Parms: SM P    MR      
 Computing Diagnostic #   2280  p_POP        Counter:       4   Parms: SM P    MR      
(PID.TID 0000.0001) // =======================================================
(PID.TID 0000.0001) // Begin MONITOR EXF statistics
(PID.TID 0000.0001) // =======================================================
(PID.TID 0000.0001) %MON exf_tsnumber                 =               5644803
(PID.TID 0000.0001) %MON exf_time_sec                 =   2.4385548960000000E+11
(PID.TID 0000.0001) %MON exf_ustress_max              =   0.0000000000000000E+00
(PID.TID 0000.0001) %MON exf_ustress_min              =   0.0000000000000000E+00
(PID.TID 0000.0001) %MON exf_ustress_mean             =   0.0000000000000000E+00
(PID.TID 0000.0001) %MON exf_ustress_sd               =   0.0000000000000000E+00
(PID.TID 0000.0001) %MON exf_ustress_del2             =   0.0000000000000000E+00
(PID.TID 0000.0001) %MON exf_vstress_max              =   0.0000000000000000E+00
(PID.TID 0000.0001) %MON exf_vstress_min              =   0.0000000000000000E+00
(PID.TID 0000.0001) %MON exf_vstress_mean             =   0.0000000000000000E+00
(PID.TID 0000.0001) %MON exf_vstress_sd               =   0.0000000000000000E+00
(PID.TID 0000.0001) %MON exf_vstress_del2             =   0.0000000000000000E+00
(PID.TID 0000.0001) %MON exf_hflux_max                =   0.0000000000000000E+00
(PID.TID 0000.0001) %MON exf_hflux_min                =   0.0000000000000000E+00
(PID.TID 0000.0001) %MON exf_hflux_mean               =   0.0000000000000000E+00
(PID.TID 0000.0001) %MON exf_hflux_sd                 =   0.0000000000000000E+00
(PID.TID 0000.0001) %MON exf_hflux_del2               =   0.0000000000000000E+00
(PID.TID 0000.0001) %MON exf_sflux_max                =   0.0000000000000000E+00
(PID.TID 0000.0001) %MON exf_sflux_min                =   0.0000000000000000E+00
(PID.TID 0000.0001) %MON exf_sflux_mean               =   0.0000000000000000E+00
(PID.TID 0000.0001) %MON exf_sflux_sd                 =   0.0000000000000000E+00
(PID.TID 0000.0001) %MON exf_sflux_del2               =   0.0000000000000000E+00
(PID.TID 0000.0001) %MON exf_uwind_max                =   0.0000000000000000E+00
(PID.TID 0000.0001) %MON exf_uwind_min                =   0.0000000000000000E+00
(PID.TID 0000.0001) %MON exf_uwind_mean               =   0.0000000000000000E+00
(PID.TID 0000.0001) %MON exf_uwind_sd                 =   0.0000000000000000E+00
(PID.TID 0000.0001) %MON exf_uwind_del2               =   0.0000000000000000E+00
(PID.TID 0000.0001) %MON exf_vwind_max                =   0.0000000000000000E+00
(PID.TID 0000.0001) %MON exf_vwind_min                =   0.0000000000000000E+00
(PID.TID 0000.0001) %MON exf_vwind_mean               =   0.0000000000000000E+00
(PID.TID 0000.0001) %MON exf_vwind_sd                 =   0.0000000000000000E+00
(PID.TID 0000.0001) %MON exf_vwind_del2               =   0.0000000000000000E+00
(PID.TID 0000.0001) %MON exf_wspeed_max               =   0.0000000000000000E+00
(PID.TID 0000.0001) %MON exf_wspeed_min               =   0.0000000000000000E+00
(PID.TID 0000.0001) %MON exf_wspeed_mean              =   0.0000000000000000E+00
(PID.TID 0000.0001) %MON exf_wspeed_sd                =   0.0000000000000000E+00
(PID.TID 0000.0001) %MON exf_wspeed_del2              =   0.0000000000000000E+00
(PID.TID 0000.0001) %MON exf_evap_max                 =   0.0000000000000000E+00
(PID.TID 0000.0001) %MON exf_evap_min                 =   0.0000000000000000E+00
(PID.TID 0000.0001) %MON exf_evap_mean                =   0.0000000000000000E+00
(PID.TID 0000.0001) %MON exf_evap_sd                  =   0.0000000000000000E+00
(PID.TID 0000.0001) %MON exf_evap_del2                =   0.0000000000000000E+00
(PID.TID 0000.0001) // =======================================================
(PID.TID 0000.0001) // End MONITOR EXF statistics
(PID.TID 0000.0001) // =======================================================
 exf          12           1  0.45000000000000001       0.55000000000000004     
 exf          12           1  0.45000000000000001       0.55000000000000004     
 exf          12           1  0.45000000000000001       0.55000000000000004     
 cg2d: Sum(rhs),rhsMax =  -6.04419639671505E-07  7.55583078239745E+00
(PID.TID 0000.0001)      cg2d_init_res =   1.60004607235695E-02
(PID.TID 0000.0001)      cg2d_iters(min,last) =      -1      22
(PID.TID 0000.0001)      cg2d_last_res =   6.78144857410664E-14
 PAR           1   0.0000000000000000        0.0000000000000000        1.0000000000000000     
 PAR           2   0.0000000000000000        0.0000000000000000        1.4000000000000001     
 PAR           3   0.0000000000000000        0.0000000000000000        2.0000000000000000     
 PAR           4   0.0000000000000000        0.0000000000000000        2.8000000000000003     
 PAR           5   0.0000000000000000        0.0000000000000000        3.8000000000000003     
 PAR           6   0.0000000000000000        0.0000000000000000        4.7999999999999998     
 PAR           7   0.0000000000000000        0.0000000000000000        5.7999999999999998     
 PAR           8   0.0000000000000000        0.0000000000000000        6.7999999999999998     
 PAR           9   0.0000000000000000        0.0000000000000000        7.7999999999999998     
 PAR          10   0.0000000000000000        0.0000000000000000        8.8000000000000007     
 PAR          11   0.0000000000000000        0.0000000000000000        9.8000000000000007     
 PAR          12   0.0000000000000000        0.0000000000000000        10.800000000000001     
 PAR          13   0.0000000000000000        0.0000000000000000        11.800000000000001     
 PAR          14   0.0000000000000000        0.0000000000000000        12.800000000000001     
 PAR          15   0.0000000000000000        0.0000000000000000        13.800000000000001     
 fe   0.0000000000000000     
 fe   0.0000000000000000        0.0000000000000000     
 PAR           1   0.0000000000000000        0.0000000000000000        1.0000000000000000     
 PAR           2   0.0000000000000000        0.0000000000000000        1.4000000000000001     
 PAR           3   0.0000000000000000        0.0000000000000000        2.0000000000000000     
 PAR           4   0.0000000000000000        0.0000000000000000        2.8000000000000003     
 PAR           5   0.0000000000000000        0.0000000000000000        3.8000000000000003     
 PAR           6   0.0000000000000000        0.0000000000000000        4.7999999999999998     
 PAR           7   0.0000000000000000        0.0000000000000000        5.7999999999999998     
 PAR           8   0.0000000000000000        0.0000000000000000        6.7999999999999998     
 PAR           9   0.0000000000000000        0.0000000000000000        7.7999999999999998     
 PAR          10   0.0000000000000000        0.0000000000000000        8.8000000000000007     
 PAR          11   0.0000000000000000        0.0000000000000000        9.8000000000000007     
 PAR          12   0.0000000000000000        0.0000000000000000        10.800000000000001     
 PAR          13   0.0000000000000000        0.0000000000000000        11.800000000000001     
 PAR          14   0.0000000000000000        0.0000000000000000        12.800000000000001     
 PAR          15   0.0000000000000000        0.0000000000000000        13.800000000000001     
 fe   0.0000000000000000     
 fe   0.0000000000000000        0.0000000000000000     
 PAR           1   0.0000000000000000        0.0000000000000000        1.0000000000000000     
 PAR           2   0.0000000000000000        0.0000000000000000        1.4000000000000001     
 PAR           3   0.0000000000000000        0.0000000000000000        2.0000000000000000     
 PAR           4   0.0000000000000000        0.0000000000000000        2.8000000000000003     
 PAR           5   0.0000000000000000        0.0000000000000000        3.8000000000000003     
 PAR           6   0.0000000000000000        0.0000000000000000        4.7999999999999998     
 PAR           7   0.0000000000000000        0.0000000000000000        5.7999999999999998     
 PAR           8   0.0000000000000000        0.0000000000000000        6.7999999999999998     
 PAR           9   0.0000000000000000        0.0000000000000000        7.7999999999999998     
 PAR          10   0.0000000000000000        0.0000000000000000        8.8000000000000007     
 PAR          11   0.0000000000000000        0.0000000000000000        9.8000000000000007     
 PAR          12   0.0000000000000000        0.0000000000000000        10.800000000000001     
 PAR          13   0.0000000000000000        0.0000000000000000        11.800000000000001     
 PAR          14   0.0000000000000000        0.0000000000000000        12.800000000000001     
 PAR          15   0.0000000000000000        0.0000000000000000        13.800000000000001     
 fe   0.0000000000000000     
 fe   0.0000000000000000        0.0000000000000000     
 PAR           1   0.0000000000000000        0.0000000000000000        1.0000000000000000     
 PAR           2   0.0000000000000000        0.0000000000000000        1.4000000000000001     
 PAR           3   0.0000000000000000        0.0000000000000000        2.0000000000000000     
 PAR           4   0.0000000000000000        0.0000000000000000        2.8000000000000003     
 PAR           5   0.0000000000000000        0.0000000000000000        3.8000000000000003     
 PAR           6   0.0000000000000000        0.0000000000000000        4.7999999999999998     
 PAR           7   0.0000000000000000        0.0000000000000000        5.7999999999999998     
 PAR           8   0.0000000000000000        0.0000000000000000        6.7999999999999998     
 PAR           9   0.0000000000000000        0.0000000000000000        7.7999999999999998     
 PAR          10   0.0000000000000000        0.0000000000000000        8.8000000000000007     
 PAR          11   0.0000000000000000        0.0000000000000000        9.8000000000000007     
 PAR          12   0.0000000000000000        0.0000000000000000        10.800000000000001     
 PAR          13   0.0000000000000000        0.0000000000000000        11.800000000000001     
 PAR          14   0.0000000000000000        0.0000000000000000        12.800000000000001     
 PAR          15   0.0000000000000000        0.0000000000000000        13.800000000000001     
 fe   0.0000000000000000     
 fe   0.0000000000000000        0.0000000000000000     
 PAR           1   0.0000000000000000        0.0000000000000000        1.0000000000000000     
 PAR           2   0.0000000000000000        0.0000000000000000        1.4000000000000001     
 PAR           3   0.0000000000000000        0.0000000000000000        2.0000000000000000     
 PAR           4   0.0000000000000000        0.0000000000000000        2.8000000000000003     
 PAR           5   0.0000000000000000        0.0000000000000000        3.8000000000000003     
 PAR           6   0.0000000000000000        0.0000000000000000        4.7999999999999998     
 PAR           7   0.0000000000000000        0.0000000000000000        5.7999999999999998     
 PAR           8   0.0000000000000000        0.0000000000000000        6.7999999999999998     
 PAR           9   0.0000000000000000        0.0000000000000000        7.7999999999999998     
 PAR          10   0.0000000000000000        0.0000000000000000        8.8000000000000007     
 PAR          11   0.0000000000000000        0.0000000000000000        9.8000000000000007     
 PAR          12   0.0000000000000000        0.0000000000000000        10.800000000000001     
 PAR          13   0.0000000000000000        0.0000000000000000        11.800000000000001     
 PAR          14   0.0000000000000000        0.0000000000000000        12.800000000000001     
 PAR          15   0.0000000000000000        0.0000000000000000        13.800000000000001     
 fe   0.0000000000000000     
 fe   0.0000000000000000        0.0000000000000000     
 PAR           1   0.0000000000000000        0.0000000000000000        1.0000000000000000     
 PAR           2   0.0000000000000000        0.0000000000000000        1.4000000000000001     
 PAR           3   0.0000000000000000        0.0000000000000000        2.0000000000000000     
 PAR           4   0.0000000000000000        0.0000000000000000        2.8000000000000003     
 PAR           5   0.0000000000000000        0.0000000000000000        3.8000000000000003     
 PAR           6   0.0000000000000000        0.0000000000000000        4.7999999999999998     
 PAR           7   0.0000000000000000        0.0000000000000000        5.7999999999999998     
 PAR           8   0.0000000000000000        0.0000000000000000        6.7999999999999998     
 PAR           9   0.0000000000000000        0.0000000000000000        7.7999999999999998     
 PAR          10   0.0000000000000000        0.0000000000000000        8.8000000000000007     
 PAR          11   0.0000000000000000        0.0000000000000000        9.8000000000000007     
 PAR          12   0.0000000000000000        0.0000000000000000        10.800000000000001     
 PAR          13   0.0000000000000000        0.0000000000000000        11.800000000000001     
 PAR          14   0.0000000000000000        0.0000000000000000        12.800000000000001     
 PAR          15   0.0000000000000000        0.0000000000000000        13.800000000000001     
 fe   0.0000000000000000     
 fe   0.0000000000000000        0.0000000000000000     
 PAR           1   0.0000000000000000        0.0000000000000000        1.0000000000000000     
 PAR           2   0.0000000000000000        0.0000000000000000        1.4000000000000001     
 PAR           3   0.0000000000000000        0.0000000000000000        2.0000000000000000     
 PAR           4   0.0000000000000000        0.0000000000000000        2.8000000000000003     
 PAR           5   0.0000000000000000        0.0000000000000000        3.8000000000000003     
 PAR           6   0.0000000000000000        0.0000000000000000        4.7999999999999998     
 PAR           7   0.0000000000000000        0.0000000000000000        5.7999999999999998     
 PAR           8   0.0000000000000000        0.0000000000000000        6.7999999999999998     
 PAR           9   0.0000000000000000        0.0000000000000000        7.7999999999999998     
 PAR          10   0.0000000000000000        0.0000000000000000        8.8000000000000007     
 PAR          11   0.0000000000000000        0.0000000000000000        9.8000000000000007     
 PAR          12   0.0000000000000000        0.0000000000000000        10.800000000000001     
 PAR          13   0.0000000000000000        0.0000000000000000        11.800000000000001     
 PAR          14   0.0000000000000000        0.0000000000000000        12.800000000000001     
 PAR          15   0.0000000000000000        0.0000000000000000        13.800000000000001     
 fe   0.0000000000000000     
 fe   0.0000000000000000        0.0000000000000000     
 PAR           1   0.0000000000000000        0.0000000000000000        1.0000000000000000     
 PAR           2   0.0000000000000000        0.0000000000000000        1.4000000000000001     
 PAR           3   0.0000000000000000        0.0000000000000000        2.0000000000000000     
 PAR           4   0.0000000000000000        0.0000000000000000        2.8000000000000003     
 PAR           5   0.0000000000000000        0.0000000000000000        3.8000000000000003     
 PAR           6   0.0000000000000000        0.0000000000000000        4.7999999999999998     
 PAR           7   0.0000000000000000        0.0000000000000000        5.7999999999999998     
 PAR           8   0.0000000000000000        0.0000000000000000        6.7999999999999998     
 PAR           9   0.0000000000000000        0.0000000000000000        7.7999999999999998     
 PAR          10   0.0000000000000000        0.0000000000000000        8.8000000000000007     
 PAR          11   0.0000000000000000        0.0000000000000000        9.8000000000000007     
 PAR          12   0.0000000000000000        0.0000000000000000        10.800000000000001     
 PAR          13   0.0000000000000000        0.0000000000000000        11.800000000000001     
 PAR          14   0.0000000000000000        0.0000000000000000        12.800000000000001     
 PAR          15   0.0000000000000000        0.0000000000000000        13.800000000000001     
 fe   0.0000000000000000     
 fe   0.0000000000000000        0.0000000000000000     
(PID.TID 0000.0001) // =======================================================
(PID.TID 0000.0001) // Begin MONITOR dynamic field statistics
(PID.TID 0000.0001) // =======================================================
(PID.TID 0000.0001) %MON time_tsnumber                =               5644804
(PID.TID 0000.0001) %MON time_secondsf                =   2.4385553280000000E+11
(PID.TID 0000.0001) %MON dynstat_eta_max              =   9.3585263292548870E-01
(PID.TID 0000.0001) %MON dynstat_eta_min              =  -1.7302094835294037E+00
(PID.TID 0000.0001) %MON dynstat_eta_mean             =   1.6246259379004829E-10
(PID.TID 0000.0001) %MON dynstat_eta_sd               =   6.5162851373782660E-01
(PID.TID 0000.0001) %MON dynstat_eta_del2             =   9.3001978035930032E-04
(PID.TID 0000.0001) %MON dynstat_uvel_max             =   1.5534274763424283E-01
(PID.TID 0000.0001) %MON dynstat_uvel_min             =  -1.8460367246561368E-01
(PID.TID 0000.0001) %MON dynstat_uvel_mean            =   2.9493672516858827E-03
(PID.TID 0000.0001) %MON dynstat_uvel_sd              =   1.3884672928701481E-02
(PID.TID 0000.0001) %MON dynstat_uvel_del2            =   3.8124002408756709E-05
(PID.TID 0000.0001) %MON dynstat_vvel_max             =   1.1189876385677579E-01
(PID.TID 0000.0001) %MON dynstat_vvel_min             =  -1.4991981851827116E-01
(PID.TID 0000.0001) %MON dynstat_vvel_mean            =  -1.8982861497681772E-04
(PID.TID 0000.0001) %MON dynstat_vvel_sd              =   6.3516506005172830E-03
(PID.TID 0000.0001) %MON dynstat_vvel_del2            =   2.6600398503877520E-05
(PID.TID 0000.0001) %MON dynstat_wvel_max             =   4.3113686245976703E-05
(PID.TID 0000.0001) %MON dynstat_wvel_min             =  -6.4911685270326313E-05
(PID.TID 0000.0001) %MON dynstat_wvel_mean            =  -1.4077316511381250E-23
(PID.TID 0000.0001) %MON dynstat_wvel_sd              =   1.9024434600929628E-06
(PID.TID 0000.0001) %MON dynstat_wvel_del2            =   1.3090149634291957E-08
(PID.TID 0000.0001) %MON dynstat_theta_max            =   2.9961112712152659E+01
(PID.TID 0000.0001) %MON dynstat_theta_min            =  -2.1381750508832678E+00
(PID.TID 0000.0001) %MON dynstat_theta_mean           =   3.7553069297011996E+00
(PID.TID 0000.0001) %MON dynstat_theta_sd             =   5.1499484716061357E+00
(PID.TID 0000.0001) %MON dynstat_theta_del2           =   2.2536084225591346E-03
(PID.TID 0000.0001) %MON dynstat_salt_max             =   3.7553013323862125E+01
(PID.TID 0000.0001) %MON dynstat_salt_min             =   3.1354782975882330E+01
(PID.TID 0000.0001) %MON dynstat_salt_mean            =   3.4543283907149679E+01
(PID.TID 0000.0001) %MON dynstat_salt_sd              =   3.5867989948536272E-01
(PID.TID 0000.0001) %MON dynstat_salt_del2            =   3.8283032590018246E-04
(PID.TID 0000.0001) %MON forcing_qnet_max             =   4.5149834136962892E+02
(PID.TID 0000.0001) %MON forcing_qnet_min             =  -2.1192386779785156E+02
(PID.TID 0000.0001) %MON forcing_qnet_mean            =  -1.7618810898481581E+01
(PID.TID 0000.0001) %MON forcing_qnet_sd              =   1.1569810928117688E+02
(PID.TID 0000.0001) %MON forcing_qnet_del2            =   2.7337286084427864E-01
(PID.TID 0000.0001) %MON forcing_qsw_max              =   0.0000000000000000E+00
(PID.TID 0000.0001) %MON forcing_qsw_min              =   0.0000000000000000E+00
(PID.TID 0000.0001) %MON forcing_qsw_mean             =   0.0000000000000000E+00
(PID.TID 0000.0001) %MON forcing_qsw_sd               =   0.0000000000000000E+00
(PID.TID 0000.0001) %MON forcing_qsw_del2             =   0.0000000000000000E+00
(PID.TID 0000.0001) %MON forcing_empmr_max            =   6.9206222512718796E-05
(PID.TID 0000.0001) %MON forcing_empmr_min            =  -1.5544422772961752E-04
(PID.TID 0000.0001) %MON forcing_empmr_mean           =   1.2460352661810301E-14
(PID.TID 0000.0001) %MON forcing_empmr_sd             =   2.4700019777611149E-05
(PID.TID 0000.0001) %MON forcing_empmr_del2           =   1.1591736879228609E-07
(PID.TID 0000.0001) %MON forcing_fu_max               =   2.6902737915515901E-01
(PID.TID 0000.0001) %MON forcing_fu_min               =  -1.5706808120012283E-01
(PID.TID 0000.0001) %MON forcing_fu_mean              =   1.7804393042848428E-02
(PID.TID 0000.0001) %MON forcing_fu_sd                =   8.9598809050514677E-02
(PID.TID 0000.0001) %MON forcing_fu_del2              =   2.4870321403547670E-04
(PID.TID 0000.0001) %MON forcing_fv_max               =   1.9845492169260978E-01
(PID.TID 0000.0001) %MON forcing_fv_min               =  -1.5973595827817916E-01
(PID.TID 0000.0001) %MON forcing_fv_mean              =  -6.3949581310796437E-03
(PID.TID 0000.0001) %MON forcing_fv_sd                =   4.4425766452551814E-02
(PID.TID 0000.0001) %MON forcing_fv_del2              =   1.7992767173481016E-04
(PID.TID 0000.0001) %MON advcfl_uvel_max              =   4.0115623656791083E-02
(PID.TID 0000.0001) %MON advcfl_vvel_max              =   2.0712544933891651E-02
(PID.TID 0000.0001) %MON advcfl_wvel_max              =   1.3112695160107966E-02
(PID.TID 0000.0001) %MON advcfl_W_hf_max              =   1.5454247867270102E-02
(PID.TID 0000.0001) %MON pe_b_mean                    =   5.8613298605401378E-04
(PID.TID 0000.0001) %MON ke_max                       =   1.7857030349379948E-02
(PID.TID 0000.0001) %MON ke_mean                      =   1.1142718814214462E-04
(PID.TID 0000.0001) %MON ke_vol                       =   1.1739855207380157E+18
(PID.TID 0000.0001) %MON vort_r_min                   =  -5.5752273455805034E-07
(PID.TID 0000.0001) %MON vort_r_max                   =   6.2161971888045736E-07
(PID.TID 0000.0001) %MON vort_a_mean                  =  -2.5798915502264662E-05
(PID.TID 0000.0001) %MON vort_a_sd                    =   7.3558773001403029E-05
(PID.TID 0000.0001) %MON vort_p_mean                  =  -3.0020960747216321E-05
(PID.TID 0000.0001) %MON vort_p_sd                    =   9.8090576393667459E-05
(PID.TID 0000.0001) %MON surfExpan_theta_mean         =  -2.2993220092721439E-07
(PID.TID 0000.0001) %MON surfExpan_salt_mean          =   2.7845094135406037E-08
(PID.TID 0000.0001) // =======================================================
(PID.TID 0000.0001) // End MONITOR dynamic field statistics
(PID.TID 0000.0001) // =======================================================
(PID.TID 0000.0001) // =======================================================
(PID.TID 0000.0001) // Begin MONITOR ptracer field statistics
(PID.TID 0000.0001) // =======================================================
(PID.TID 0000.0001) %MON trcstat_ptracer01_max        =   2.0001950114843903E+03
(PID.TID 0000.0001) %MON trcstat_ptracer01_min        =   1.9928159014898968E+03
(PID.TID 0000.0001) %MON trcstat_ptracer01_mean       =   1.9999872655170375E+03
(PID.TID 0000.0001) %MON trcstat_ptracer01_sd         =   1.6177511458608845E-01
(PID.TID 0000.0001) %MON trcstat_ptracer01_del2       =   8.7085284418137680E-04
(PID.TID 0000.0001) %MON trcstat_ptracer02_max        =   2.9516308446745981E-01
(PID.TID 0000.0001) %MON trcstat_ptracer02_min        =   2.3111984428725690E-08
(PID.TID 0000.0001) %MON trcstat_ptracer02_mean       =   2.7422791900839618E-03
(PID.TID 0000.0001) %MON trcstat_ptracer02_sd         =   1.7319137253259013E-02
(PID.TID 0000.0001) %MON trcstat_ptracer02_del2       =   6.3854968777000978E-05
(PID.TID 0000.0001) %MON trcstat_ptracer03_max        =   2.5545583674448644E+00
(PID.TID 0000.0001) %MON trcstat_ptracer03_min        =   2.6777496878477192E-06
(PID.TID 0000.0001) %MON trcstat_ptracer03_mean       =   2.9696779390288190E-02
(PID.TID 0000.0001) %MON trcstat_ptracer03_sd         =   8.7375243252594187E-02
(PID.TID 0000.0001) %MON trcstat_ptracer03_del2       =   1.2624505429869917E-04
(PID.TID 0000.0001) %MON trcstat_ptracer04_max        =   5.5522012136065698E+01
(PID.TID 0000.0001) %MON trcstat_ptracer04_min        =   1.5685073271054731E-04
(PID.TID 0000.0001) %MON trcstat_ptracer04_mean       =   3.0322923567366431E+01
(PID.TID 0000.0001) %MON trcstat_ptracer04_sd         =   9.3025386751774839E+00
(PID.TID 0000.0001) %MON trcstat_ptracer04_del2       =   7.1555194539659750E-03
(PID.TID 0000.0001) %MON trcstat_ptracer05_max        =   3.4905935699571007E+00
(PID.TID 0000.0001) %MON trcstat_ptracer05_min        =   4.5906283689423080E-02
(PID.TID 0000.0001) %MON trcstat_ptracer05_mean       =   2.1105987292643578E+00
(PID.TID 0000.0001) %MON trcstat_ptracer05_sd         =   6.4925014357739030E-01
(PID.TID 0000.0001) %MON trcstat_ptracer05_del2       =   3.7196879264572681E-04
(PID.TID 0000.0001) %MON trcstat_ptracer06_max        =   1.8837816514962745E+02
(PID.TID 0000.0001) %MON trcstat_ptracer06_min        =   4.1804825013291691E-01
(PID.TID 0000.0001) %MON trcstat_ptracer06_mean       =   8.3739890288846411E+01
(PID.TID 0000.0001) %MON trcstat_ptracer06_sd         =   4.9672274674677816E+01
(PID.TID 0000.0001) %MON trcstat_ptracer06_del2       =   1.6724117699807580E-02
(PID.TID 0000.0001) %MON trcstat_ptracer07_max        =   1.3877500293484868E-03
(PID.TID 0000.0001) %MON trcstat_ptracer07_min        =   2.5504144581218591E-06
(PID.TID 0000.0001) %MON trcstat_ptracer07_mean       =   3.2960737556363053E-04
(PID.TID 0000.0001) %MON trcstat_ptracer07_sd         =   2.1697297663160535E-04
(PID.TID 0000.0001) %MON trcstat_ptracer07_del2       =   2.1163015858801669E-07
(PID.TID 0000.0001) %MON trcstat_ptracer08_max        =   7.2478199830951100E+00
(PID.TID 0000.0001) %MON trcstat_ptracer08_min        =   1.3862507259715723E-08
(PID.TID 0000.0001) %MON trcstat_ptracer08_mean       =   5.5156289245591825E-03
(PID.TID 0000.0001) %MON trcstat_ptracer08_sd         =   5.4944456544238275E-02
(PID.TID 0000.0001) %MON trcstat_ptracer08_del2       =   7.8886575552683926E-04
(PID.TID 0000.0001) %MON trcstat_ptracer09_max        =   2.0423998137837995E+00
(PID.TID 0000.0001) %MON trcstat_ptracer09_min        =  -2.3718607818313674E-03
(PID.TID 0000.0001) %MON trcstat_ptracer09_mean       =   1.7515081884033078E-02
(PID.TID 0000.0001) %MON trcstat_ptracer09_sd         =   1.1070525965377591E-01
(PID.TID 0000.0001) %MON trcstat_ptracer09_del2       =   3.2632607147737094E-04
(PID.TID 0000.0001) %MON trcstat_ptracer10_max        =   1.2764998836148747E-01
(PID.TID 0000.0001) %MON trcstat_ptracer10_min        =  -1.4824129886446046E-04
(PID.TID 0000.0001) %MON trcstat_ptracer10_mean       =   1.0946926177520674E-03
(PID.TID 0000.0001) %MON trcstat_ptracer10_sd         =   6.9190787283609943E-03
(PID.TID 0000.0001) %MON trcstat_ptracer10_del2       =   2.0395379467335684E-05
(PID.TID 0000.0001) %MON trcstat_ptracer11_max        =   8.4681351190835227E-05
(PID.TID 0000.0001) %MON trcstat_ptracer11_min        =  -1.2541922247567243E-07
(PID.TID 0000.0001) %MON trcstat_ptracer11_mean       =   3.2580195420005898E-07
(PID.TID 0000.0001) %MON trcstat_ptracer11_sd         =   2.2472834544516405E-06
(PID.TID 0000.0001) %MON trcstat_ptracer11_del2       =   9.7329372126874088E-09
(PID.TID 0000.0001) %MON trcstat_ptracer12_max        =   6.0971765754747693E+00
(PID.TID 0000.0001) %MON trcstat_ptracer12_min        =   7.7185136195220232E-09
(PID.TID 0000.0001) %MON trcstat_ptracer12_mean       =   3.4381404934049897E-03
(PID.TID 0000.0001) %MON trcstat_ptracer12_sd         =   3.6563215280606687E-02
(PID.TID 0000.0001) %MON trcstat_ptracer12_del2       =   6.3055240456560057E-04
(PID.TID 0000.0001) %MON trcstat_ptracer13_max        =   2.9858836706396938E+00
(PID.TID 0000.0001) %MON trcstat_ptracer13_min        =   1.3482431516519361E-06
(PID.TID 0000.0001) %MON trcstat_ptracer13_mean       =   2.6497561972862186E-02
(PID.TID 0000.0001) %MON trcstat_ptracer13_sd         =   5.6854089558552874E-02
(PID.TID 0000.0001) %MON trcstat_ptracer13_del2       =   2.7520954969930192E-04
(PID.TID 0000.0001) %MON trcstat_ptracer14_max        =   1.8661772941498087E-01
(PID.TID 0000.0001) %MON trcstat_ptracer14_min        =   8.4265196978246004E-08
(PID.TID 0000.0001) %MON trcstat_ptracer14_mean       =   1.6560976233038866E-03
(PID.TID 0000.0001) %MON trcstat_ptracer14_sd         =   3.5533805974095546E-03
(PID.TID 0000.0001) %MON trcstat_ptracer14_del2       =   1.7200596856206370E-05
(PID.TID 0000.0001) %MON trcstat_ptracer15_max        =   4.0468653680667316E+01
(PID.TID 0000.0001) %MON trcstat_ptracer15_min        =  -1.0390675569410061E-01
(PID.TID 0000.0001) %MON trcstat_ptracer15_mean       =   1.5086707545529904E-01
(PID.TID 0000.0001) %MON trcstat_ptracer15_sd         =   4.0936853635606590E-01
(PID.TID 0000.0001) %MON trcstat_ptracer15_del2       =   2.1496874791724833E-03
(PID.TID 0000.0001) %MON trcstat_ptracer16_max        =   1.9341028487634287E-04
(PID.TID 0000.0001) %MON trcstat_ptracer16_min        =   1.3603059390138321E-11
(PID.TID 0000.0001) %MON trcstat_ptracer16_mean       =   7.4558704227256907E-07
(PID.TID 0000.0001) %MON trcstat_ptracer16_sd         =   2.3417181022254952E-06
(PID.TID 0000.0001) %MON trcstat_ptracer16_del2       =   1.2976494754395864E-08
(PID.TID 0000.0001) %MON trcstat_ptracer17_max        =   0.0000000000000000E+00
(PID.TID 0000.0001) %MON trcstat_ptracer17_min        =   0.0000000000000000E+00
(PID.TID 0000.0001) %MON trcstat_ptracer17_mean       =   0.0000000000000000E+00
(PID.TID 0000.0001) %MON trcstat_ptracer17_sd         =   0.0000000000000000E+00
(PID.TID 0000.0001) %MON trcstat_ptracer17_del2       =   0.0000000000000000E+00
(PID.TID 0000.0001) %MON trcstat_ptracer18_max        =   4.1564023684163470E-01
(PID.TID 0000.0001) %MON trcstat_ptracer18_min        =   1.1432844712071128E-09
(PID.TID 0000.0001) %MON trcstat_ptracer18_mean       =   4.3888461957549199E-04
(PID.TID 0000.0001) %MON trcstat_ptracer18_sd         =   4.1943993749924144E-03
(PID.TID 0000.0001) %MON trcstat_ptracer18_del2       =   5.3052717885618450E-05
(PID.TID 0000.0001) %MON trcstat_ptracer19_max        =   4.3409664576762602E-01
(PID.TID 0000.0001) %MON trcstat_ptracer19_min        =   1.1387333244440433E-09
(PID.TID 0000.0001) %MON trcstat_ptracer19_mean       =   4.5378155965502046E-04
(PID.TID 0000.0001) %MON trcstat_ptracer19_sd         =   4.3954209714118907E-03
(PID.TID 0000.0001) %MON trcstat_ptracer19_del2       =   5.2496075476034385E-05
(PID.TID 0000.0001) %MON trcstat_ptracer20_max        =   4.5106277292879904E-01
(PID.TID 0000.0001) %MON trcstat_ptracer20_min        =   1.1432844715597091E-09
(PID.TID 0000.0001) %MON trcstat_ptracer20_mean       =   4.4103391108551613E-04
(PID.TID 0000.0001) %MON trcstat_ptracer20_sd         =   4.2390216523036850E-03
(PID.TID 0000.0001) %MON trcstat_ptracer20_del2       =   5.4879157996897914E-05
(PID.TID 0000.0001) %MON trcstat_ptracer21_max        =   4.3409664576762591E-01
(PID.TID 0000.0001) %MON trcstat_ptracer21_min        =   1.1387333244440433E-09
(PID.TID 0000.0001) %MON trcstat_ptracer21_mean       =   4.1249760868704608E-04
(PID.TID 0000.0001) %MON trcstat_ptracer21_sd         =   3.8830016750017061E-03
(PID.TID 0000.0001) %MON trcstat_ptracer21_del2       =   5.0690868707022357E-05
(PID.TID 0000.0001) %MON trcstat_ptracer22_max        =   4.4753169236875984E-01
(PID.TID 0000.0001) %MON trcstat_ptracer22_min        =   1.1387333244440433E-09
(PID.TID 0000.0001) %MON trcstat_ptracer22_mean       =   6.0335758107434142E-04
(PID.TID 0000.0001) %MON trcstat_ptracer22_sd         =   6.8401850378904212E-03
(PID.TID 0000.0001) %MON trcstat_ptracer22_del2       =   6.3450223128215717E-05
(PID.TID 0000.0001) %MON trcstat_ptracer23_max        =   4.3409664576762624E-01
(PID.TID 0000.0001) %MON trcstat_ptracer23_min        =   1.1387333244440433E-09
(PID.TID 0000.0001) %MON trcstat_ptracer23_mean       =   4.6950344398439755E-04
(PID.TID 0000.0001) %MON trcstat_ptracer23_sd         =   4.4696706092387994E-03
(PID.TID 0000.0001) %MON trcstat_ptracer23_del2       =   5.2218681533128802E-05
(PID.TID 0000.0001) %MON trcstat_ptracer24_max        =   4.5078220378870404E-01
(PID.TID 0000.0001) %MON trcstat_ptracer24_min        =   1.1432844715597091E-09
(PID.TID 0000.0001) %MON trcstat_ptracer24_mean       =   5.7780646243562781E-04
(PID.TID 0000.0001) %MON trcstat_ptracer24_sd         =   6.1982995843423514E-03
(PID.TID 0000.0001) %MON trcstat_ptracer24_del2       =   6.0512397989132386E-05
(PID.TID 0000.0001) %MON trcstat_ptracer25_max        =   4.3409664576762802E-01
(PID.TID 0000.0001) %MON trcstat_ptracer25_min        =   1.1387333244440433E-09
(PID.TID 0000.0001) %MON trcstat_ptracer25_mean       =   4.3315309453306603E-04
(PID.TID 0000.0001) %MON trcstat_ptracer25_sd         =   4.1682911968893531E-03
(PID.TID 0000.0001) %MON trcstat_ptracer25_del2       =   5.2470707642720270E-05
(PID.TID 0000.0001) %MON trcstat_ptracer26_max        =   4.3409664576762608E-01
(PID.TID 0000.0001) %MON trcstat_ptracer26_min        =   1.1387333244440433E-09
(PID.TID 0000.0001) %MON trcstat_ptracer26_mean       =   4.4804260345404802E-04
(PID.TID 0000.0001) %MON trcstat_ptracer26_sd         =   4.3223868236255888E-03
(PID.TID 0000.0001) %MON trcstat_ptracer26_del2       =   5.2419519244436565E-05
(PID.TID 0000.0001) %MON trcstat_ptracer27_max        =   4.1530919445805375E-01
(PID.TID 0000.0001) %MON trcstat_ptracer27_min        =   1.1432844712071128E-09
(PID.TID 0000.0001) %MON trcstat_ptracer27_mean       =   4.7654566949916790E-04
(PID.TID 0000.0001) %MON trcstat_ptracer27_sd         =   4.6389783800083947E-03
(PID.TID 0000.0001) %MON trcstat_ptracer27_del2       =   5.2127292367815441E-05
(PID.TID 0000.0001) %MON trcstat_ptracer28_max        =   4.6286242089049912E-01
(PID.TID 0000.0001) %MON trcstat_ptracer28_min        =   1.1387333244440433E-09
(PID.TID 0000.0001) %MON trcstat_ptracer28_mean       =   5.5747011678781912E-04
(PID.TID 0000.0001) %MON trcstat_ptracer28_sd         =   6.1346267582627952E-03
(PID.TID 0000.0001) %MON trcstat_ptracer28_del2       =   6.3819296004412570E-05
(PID.TID 0000.0001) %MON trcstat_ptracer29_max        =   4.3409664576762630E-01
(PID.TID 0000.0001) %MON trcstat_ptracer29_min        =   1.1387333244440433E-09
(PID.TID 0000.0001) %MON trcstat_ptracer29_mean       =   4.3428974638580914E-04
(PID.TID 0000.0001) %MON trcstat_ptracer29_sd         =   4.0563334249643784E-03
(PID.TID 0000.0001) %MON trcstat_ptracer29_del2       =   5.1330071301496342E-05
(PID.TID 0000.0001) %MON trcstat_ptracer30_max        =   4.3409664576762547E-01
(PID.TID 0000.0001) %MON trcstat_ptracer30_min        =   1.1387333244440433E-09
(PID.TID 0000.0001) %MON trcstat_ptracer30_mean       =   4.0478250943902332E-04
(PID.TID 0000.0001) %MON trcstat_ptracer30_sd         =   3.8194388132248886E-03
(PID.TID 0000.0001) %MON trcstat_ptracer30_del2       =   5.0412850362983321E-05
(PID.TID 0000.0001) %MON trcstat_ptracer31_max        =   4.5078220378868999E-01
(PID.TID 0000.0001) %MON trcstat_ptracer31_min        =   1.1432844715597091E-09
(PID.TID 0000.0001) %MON trcstat_ptracer31_mean       =   8.5802087200813337E-04
(PID.TID 0000.0001) %MON trcstat_ptracer31_sd         =   9.1794400747069807E-03
(PID.TID 0000.0001) %MON trcstat_ptracer31_del2       =   5.9869733345434270E-05
(PID.TID 0000.0001) %MON trcstat_ptracer32_max        =   4.8204423483800057E-01
(PID.TID 0000.0001) %MON trcstat_ptracer32_min        =   1.1432844712071128E-09
(PID.TID 0000.0001) %MON trcstat_ptracer32_mean       =   7.3806928687659686E-04
(PID.TID 0000.0001) %MON trcstat_ptracer32_sd         =   8.4659184059836246E-03
(PID.TID 0000.0001) %MON trcstat_ptracer32_del2       =   6.1885526909054577E-05
(PID.TID 0000.0001) %MON trcstat_ptracer33_max        =   4.3411240956680519E-01
(PID.TID 0000.0001) %MON trcstat_ptracer33_min        =   1.1387333244440433E-09
(PID.TID 0000.0001) %MON trcstat_ptracer33_mean       =   3.9601137407543853E-04
(PID.TID 0000.0001) %MON trcstat_ptracer33_sd         =   3.7416782522656489E-03
(PID.TID 0000.0001) %MON trcstat_ptracer33_del2       =   5.0195035826510164E-05
(PID.TID 0000.0001) %MON trcstat_ptracer34_max        =   6.1671344935189998E-01
(PID.TID 0000.0001) %MON trcstat_ptracer34_min        =   1.1432844712071128E-09
(PID.TID 0000.0001) %MON trcstat_ptracer34_mean       =   1.0289518551893334E-03
(PID.TID 0000.0001) %MON trcstat_ptracer34_sd         =   1.2781737013395992E-02
(PID.TID 0000.0001) %MON trcstat_ptracer34_del2       =   7.3816496644597598E-05
(PID.TID 0000.0001) %MON trcstat_ptracer35_max        =   5.4757643862626360E-01
(PID.TID 0000.0001) %MON trcstat_ptracer35_min        =   1.1432844712071128E-09
(PID.TID 0000.0001) %MON trcstat_ptracer35_mean       =   7.7561853604769728E-04
(PID.TID 0000.0001) %MON trcstat_ptracer35_sd         =   8.9610623502157077E-03
(PID.TID 0000.0001) %MON trcstat_ptracer35_del2       =   6.7676105926731884E-05
(PID.TID 0000.0001) %MON trcstat_ptracer36_max        =   4.3409664576762802E-01
(PID.TID 0000.0001) %MON trcstat_ptracer36_min        =   1.1387333244440433E-09
(PID.TID 0000.0001) %MON trcstat_ptracer36_mean       =   5.5608642548812879E-04
(PID.TID 0000.0001) %MON trcstat_ptracer36_sd         =   5.8657660382863477E-03
(PID.TID 0000.0001) %MON trcstat_ptracer36_del2       =   6.0415088329928519E-05
(PID.TID 0000.0001) %MON trcstat_ptracer37_max        =   4.3410467640657580E-01
(PID.TID 0000.0001) %MON trcstat_ptracer37_min        =   1.1387333244440433E-09
(PID.TID 0000.0001) %MON trcstat_ptracer37_mean       =   4.2371665629503159E-04
(PID.TID 0000.0001) %MON trcstat_ptracer37_sd         =   4.0392468369857444E-03
(PID.TID 0000.0001) %MON trcstat_ptracer37_del2       =   5.2329346950253053E-05
(PID.TID 0000.0001) %MON trcstat_ptracer38_max        =   4.3409664576762519E-01
(PID.TID 0000.0001) %MON trcstat_ptracer38_min        =   1.1387333244440433E-09
(PID.TID 0000.0001) %MON trcstat_ptracer38_mean       =   3.9989253645898102E-04
(PID.TID 0000.0001) %MON trcstat_ptracer38_sd         =   3.7758377187966652E-03
(PID.TID 0000.0001) %MON trcstat_ptracer38_del2       =   5.0250668396653348E-05
(PID.TID 0000.0001) %MON trcstat_ptracer39_max        =   6.4973677400920737E-01
(PID.TID 0000.0001) %MON trcstat_ptracer39_min        =   1.1432844712071128E-09
(PID.TID 0000.0001) %MON trcstat_ptracer39_mean       =   9.8858608845858254E-04
(PID.TID 0000.0001) %MON trcstat_ptracer39_sd         =   1.2581538276843815E-02
(PID.TID 0000.0001) %MON trcstat_ptracer39_del2       =   7.5975031312667564E-05
(PID.TID 0000.0001) %MON trcstat_ptracer40_max        =   4.3409664576762597E-01
(PID.TID 0000.0001) %MON trcstat_ptracer40_min        =   1.1387333244440433E-09
(PID.TID 0000.0001) %MON trcstat_ptracer40_mean       =   4.4259878352890711E-04
(PID.TID 0000.0001) %MON trcstat_ptracer40_sd         =   4.2537461165288492E-03
(PID.TID 0000.0001) %MON trcstat_ptracer40_del2       =   5.2148459108735414E-05
(PID.TID 0000.0001) %MON trcstat_ptracer41_max        =   4.3409664576762630E-01
(PID.TID 0000.0001) %MON trcstat_ptracer41_min        =   1.1387333244440433E-09
(PID.TID 0000.0001) %MON trcstat_ptracer41_mean       =   4.3184833937454803E-04
(PID.TID 0000.0001) %MON trcstat_ptracer41_sd         =   4.0282635035384555E-03
(PID.TID 0000.0001) %MON trcstat_ptracer41_del2       =   5.1214371783619063E-05
(PID.TID 0000.0001) %MON trcstat_ptracer42_max        =   4.3409664576762802E-01
(PID.TID 0000.0001) %MON trcstat_ptracer42_min        =   1.1387333244440433E-09
(PID.TID 0000.0001) %MON trcstat_ptracer42_mean       =   4.3503470279897515E-04
(PID.TID 0000.0001) %MON trcstat_ptracer42_sd         =   4.1950138870147794E-03
(PID.TID 0000.0001) %MON trcstat_ptracer42_del2       =   5.2629330425549410E-05
(PID.TID 0000.0001) %MON trcstat_ptracer43_max        =   4.3409664576762608E-01
(PID.TID 0000.0001) %MON trcstat_ptracer43_min        =   1.1387333244440433E-09
(PID.TID 0000.0001) %MON trcstat_ptracer43_mean       =   7.1343008204663850E-04
(PID.TID 0000.0001) %MON trcstat_ptracer43_sd         =   7.7046542037160276E-03
(PID.TID 0000.0001) %MON trcstat_ptracer43_del2       =   6.0493889432755499E-05
(PID.TID 0000.0001) %MON trcstat_ptracer44_max        =   4.1551257604280956E-01
(PID.TID 0000.0001) %MON trcstat_ptracer44_min        =   1.1432844712071128E-09
(PID.TID 0000.0001) %MON trcstat_ptracer44_mean       =   4.1787991491373967E-04
(PID.TID 0000.0001) %MON trcstat_ptracer44_sd         =   3.9263802004515930E-03
(PID.TID 0000.0001) %MON trcstat_ptracer44_del2       =   5.0488888270044110E-05
(PID.TID 0000.0001) %MON trcstat_ptracer45_max        =   4.1529773054123864E-01
(PID.TID 0000.0001) %MON trcstat_ptracer45_min        =   1.1432844712071128E-09
(PID.TID 0000.0001) %MON trcstat_ptracer45_mean       =   5.2752983259619619E-04
(PID.TID 0000.0001) %MON trcstat_ptracer45_sd         =   4.9040723879916715E-03
(PID.TID 0000.0001) %MON trcstat_ptracer45_del2       =   5.1093359569014083E-05
(PID.TID 0000.0001) %MON trcstat_ptracer46_max        =   4.3428824910798502E-01
(PID.TID 0000.0001) %MON trcstat_ptracer46_min        =   1.1387333244440433E-09
(PID.TID 0000.0001) %MON trcstat_ptracer46_mean       =   4.1271418721226745E-04
(PID.TID 0000.0001) %MON trcstat_ptracer46_sd         =   3.9313318408628842E-03
(PID.TID 0000.0001) %MON trcstat_ptracer46_del2       =   5.1836789905090335E-05
(PID.TID 0000.0001) %MON trcstat_ptracer47_max        =   4.3409664576762674E-01
(PID.TID 0000.0001) %MON trcstat_ptracer47_min        =   1.1387333244440433E-09
(PID.TID 0000.0001) %MON trcstat_ptracer47_mean       =   4.2032635811973433E-04
(PID.TID 0000.0001) %MON trcstat_ptracer47_sd         =   3.9447182514202664E-03
(PID.TID 0000.0001) %MON trcstat_ptracer47_del2       =   5.1113251022385200E-05
(PID.TID 0000.0001) %MON trcstat_ptracer48_max        =   4.5078220378868655E-01
(PID.TID 0000.0001) %MON trcstat_ptracer48_min        =   1.1432844715597091E-09
(PID.TID 0000.0001) %MON trcstat_ptracer48_mean       =   5.1408049891267082E-04
(PID.TID 0000.0001) %MON trcstat_ptracer48_sd         =   5.1235792967671721E-03
(PID.TID 0000.0001) %MON trcstat_ptracer48_del2       =   5.5080783742679535E-05
(PID.TID 0000.0001) %MON trcstat_ptracer49_max        =   4.9906016938122211E-01
(PID.TID 0000.0001) %MON trcstat_ptracer49_min        =   1.1387333244440433E-09
(PID.TID 0000.0001) %MON trcstat_ptracer49_mean       =   4.9280164989453517E-04
(PID.TID 0000.0001) %MON trcstat_ptracer49_sd         =   4.8376761820377459E-03
(PID.TID 0000.0001) %MON trcstat_ptracer49_del2       =   5.5251890929964471E-05
(PID.TID 0000.0001) %MON trcstat_ptracer50_max        =   4.3409664576762802E-01
(PID.TID 0000.0001) %MON trcstat_ptracer50_min        =   1.1387333244440433E-09
(PID.TID 0000.0001) %MON trcstat_ptracer50_mean       =   4.3678243261286576E-04
(PID.TID 0000.0001) %MON trcstat_ptracer50_sd         =   4.2273314861587807E-03
(PID.TID 0000.0001) %MON trcstat_ptracer50_del2       =   5.2721755269834601E-05
(PID.TID 0000.0001) %MON trcstat_ptracer51_max        =   4.1529773054123265E-01
(PID.TID 0000.0001) %MON trcstat_ptracer51_min        =   1.1432844712071128E-09
(PID.TID 0000.0001) %MON trcstat_ptracer51_mean       =   5.0115263385196011E-04
(PID.TID 0000.0001) %MON trcstat_ptracer51_sd         =   4.4408536923807420E-03
(PID.TID 0000.0001) %MON trcstat_ptracer51_del2       =   4.9181937203334811E-05
(PID.TID 0000.0001) %MON trcstat_ptracer52_max        =   4.3047777789905173E-01
(PID.TID 0000.0001) %MON trcstat_ptracer52_min        =   1.1432844712071128E-09
(PID.TID 0000.0001) %MON trcstat_ptracer52_mean       =   6.8905567834418252E-04
(PID.TID 0000.0001) %MON trcstat_ptracer52_sd         =   7.4877519482270324E-03
(PID.TID 0000.0001) %MON trcstat_ptracer52_del2       =   6.5356210208312822E-05
(PID.TID 0000.0001) %MON trcstat_ptracer53_max        =   4.3409664576765367E-01
(PID.TID 0000.0001) %MON trcstat_ptracer53_min        =   1.1387333244440433E-09
(PID.TID 0000.0001) %MON trcstat_ptracer53_mean       =   6.2815546519464217E-04
(PID.TID 0000.0001) %MON trcstat_ptracer53_sd         =   6.7920450344614806E-03
(PID.TID 0000.0001) %MON trcstat_ptracer53_del2       =   5.9648154605124176E-05
(PID.TID 0000.0001) %MON trcstat_ptracer54_max        =   4.3409664576763107E-01
(PID.TID 0000.0001) %MON trcstat_ptracer54_min        =   1.1387333244440433E-09
(PID.TID 0000.0001) %MON trcstat_ptracer54_mean       =   4.2871959363613026E-04
(PID.TID 0000.0001) %MON trcstat_ptracer54_sd         =   4.1243745354211762E-03
(PID.TID 0000.0001) %MON trcstat_ptracer54_del2       =   5.2487159518564022E-05
(PID.TID 0000.0001) %MON trcstat_ptracer55_max        =   4.5078220378869766E-01
(PID.TID 0000.0001) %MON trcstat_ptracer55_min        =   1.1432844715597091E-09
(PID.TID 0000.0001) %MON trcstat_ptracer55_mean       =   8.1044456414961267E-04
(PID.TID 0000.0001) %MON trcstat_ptracer55_sd         =   9.1368005234215236E-03
(PID.TID 0000.0001) %MON trcstat_ptracer55_del2       =   6.2543354968764154E-05
(PID.TID 0000.0001) %MON trcstat_ptracer56_max        =   4.5078220378871459E-01
(PID.TID 0000.0001) %MON trcstat_ptracer56_min        =   1.1432844715597091E-09
(PID.TID 0000.0001) %MON trcstat_ptracer56_mean       =   6.0189338474303761E-04
(PID.TID 0000.0001) %MON trcstat_ptracer56_sd         =   6.6075764618681431E-03
(PID.TID 0000.0001) %MON trcstat_ptracer56_del2       =   6.3458854697050210E-05
(PID.TID 0000.0001) %MON trcstat_ptracer57_max        =   4.1529773054124253E-01
(PID.TID 0000.0001) %MON trcstat_ptracer57_min        =   1.1432844712071128E-09
(PID.TID 0000.0001) %MON trcstat_ptracer57_mean       =   5.2140981183196561E-04
(PID.TID 0000.0001) %MON trcstat_ptracer57_sd         =   5.1160483390656070E-03
(PID.TID 0000.0001) %MON trcstat_ptracer57_del2       =   5.1841134179518490E-05
(PID.TID 0000.0001) %MON trcstat_ptracer58_max        =   4.1557138190957787E-01
(PID.TID 0000.0001) %MON trcstat_ptracer58_min        =   1.1432844712071128E-09
(PID.TID 0000.0001) %MON trcstat_ptracer58_mean       =   4.8883257049028828E-04
(PID.TID 0000.0001) %MON trcstat_ptracer58_sd         =   4.8539622514055620E-03
(PID.TID 0000.0001) %MON trcstat_ptracer58_del2       =   5.6274156542967849E-05
(PID.TID 0000.0001) %MON trcstat_ptracer59_max        =   4.6366683073510012E-01
(PID.TID 0000.0001) %MON trcstat_ptracer59_min        =   1.1432844712071128E-09
(PID.TID 0000.0001) %MON trcstat_ptracer59_mean       =   8.3952745379181279E-04
(PID.TID 0000.0001) %MON trcstat_ptracer59_sd         =   9.4440722039434762E-03
(PID.TID 0000.0001) %MON trcstat_ptracer59_del2       =   6.1782124264549672E-05
(PID.TID 0000.0001) %MON trcstat_ptracer60_max        =   5.2910789635846278E-01
(PID.TID 0000.0001) %MON trcstat_ptracer60_min        =   1.1432844715597091E-09
(PID.TID 0000.0001) %MON trcstat_ptracer60_mean       =   8.2458311385751927E-04
(PID.TID 0000.0001) %MON trcstat_ptracer60_sd         =   9.7518829060539471E-03
(PID.TID 0000.0001) %MON trcstat_ptracer60_del2       =   6.6721146463699134E-05
(PID.TID 0000.0001) %MON trcstat_ptracer61_max        =   4.5078220378870054E-01
(PID.TID 0000.0001) %MON trcstat_ptracer61_min        =   1.1432844715597091E-09
(PID.TID 0000.0001) %MON trcstat_ptracer61_mean       =   5.4631494927276315E-04
(PID.TID 0000.0001) %MON trcstat_ptracer61_sd         =   5.7507068840759058E-03
(PID.TID 0000.0001) %MON trcstat_ptracer61_del2       =   5.8380219966105768E-05
(PID.TID 0000.0001) %MON trcstat_ptracer62_max        =   4.5078220378869777E-01
(PID.TID 0000.0001) %MON trcstat_ptracer62_min        =   1.1432844715597091E-09
(PID.TID 0000.0001) %MON trcstat_ptracer62_mean       =   5.2355882787153362E-04
(PID.TID 0000.0001) %MON trcstat_ptracer62_sd         =   5.4215651846922083E-03
(PID.TID 0000.0001) %MON trcstat_ptracer62_del2       =   5.7593639032175912E-05
(PID.TID 0000.0001) %MON trcstat_ptracer63_max        =   4.1530314429729004E-01
(PID.TID 0000.0001) %MON trcstat_ptracer63_min        =   1.1432844712071128E-09
(PID.TID 0000.0001) %MON trcstat_ptracer63_mean       =   4.1529597559869362E-04
(PID.TID 0000.0001) %MON trcstat_ptracer63_sd         =   3.8268549576048199E-03
(PID.TID 0000.0001) %MON trcstat_ptracer63_del2       =   4.8839671954608788E-05
(PID.TID 0000.0001) %MON trcstat_ptracer64_max        =   4.3409664576762602E-01
(PID.TID 0000.0001) %MON trcstat_ptracer64_min        =   1.1387333244440433E-09
(PID.TID 0000.0001) %MON trcstat_ptracer64_mean       =   4.7264922875423697E-04
(PID.TID 0000.0001) %MON trcstat_ptracer64_sd         =   4.5893799621441527E-03
(PID.TID 0000.0001) %MON trcstat_ptracer64_del2       =   5.3420076614997150E-05
(PID.TID 0000.0001) %MON trcstat_ptracer65_max        =   4.5078220378870371E-01
(PID.TID 0000.0001) %MON trcstat_ptracer65_min        =   1.1432844715597091E-09
(PID.TID 0000.0001) %MON trcstat_ptracer65_mean       =   6.0764546890412969E-04
(PID.TID 0000.0001) %MON trcstat_ptracer65_sd         =   6.4299533458347788E-03
(PID.TID 0000.0001) %MON trcstat_ptracer65_del2       =   6.1989794648658879E-05
(PID.TID 0000.0001) %MON trcstat_ptracer66_max        =   4.5078220378867523E-01
(PID.TID 0000.0001) %MON trcstat_ptracer66_min        =   1.1432844715597091E-09
(PID.TID 0000.0001) %MON trcstat_ptracer66_mean       =   4.4472528340320491E-04
(PID.TID 0000.0001) %MON trcstat_ptracer66_sd         =   4.1990797883126041E-03
(PID.TID 0000.0001) %MON trcstat_ptracer66_del2       =   5.2286297359212517E-05
(PID.TID 0000.0001) %MON trcstat_ptracer67_max        =   4.5078220378869144E-01
(PID.TID 0000.0001) %MON trcstat_ptracer67_min        =   1.1432844715597091E-09
(PID.TID 0000.0001) %MON trcstat_ptracer67_mean       =   5.2111550665999147E-04
(PID.TID 0000.0001) %MON trcstat_ptracer67_sd         =   5.3125078639921089E-03
(PID.TID 0000.0001) %MON trcstat_ptracer67_del2       =   5.6120015451503119E-05
(PID.TID 0000.0001) %MON trcstat_ptracer68_max        =   4.3409664576756590E-01
(PID.TID 0000.0001) %MON trcstat_ptracer68_min        =   1.1387333244440433E-09
(PID.TID 0000.0001) %MON trcstat_ptracer68_mean       =   4.0796978156866991E-04
(PID.TID 0000.0001) %MON trcstat_ptracer68_sd         =   3.8889923053992983E-03
(PID.TID 0000.0001) %MON trcstat_ptracer68_del2       =   5.0839305623340836E-05
(PID.TID 0000.0001) %MON trcstat_ptracer69_max        =   4.5078220378870976E-01
(PID.TID 0000.0001) %MON trcstat_ptracer69_min        =   1.1432844715597091E-09
(PID.TID 0000.0001) %MON trcstat_ptracer69_mean       =   5.9935498941186079E-04
(PID.TID 0000.0001) %MON trcstat_ptracer69_sd         =   6.5188781277138817E-03
(PID.TID 0000.0001) %MON trcstat_ptracer69_del2       =   6.2574723317940836E-05
(PID.TID 0000.0001) %MON trcstat_ptracer70_max        =   4.1548824934460593E-01
(PID.TID 0000.0001) %MON trcstat_ptracer70_min        =   1.1432844712071128E-09
(PID.TID 0000.0001) %MON trcstat_ptracer70_mean       =   4.5824533503233849E-04
(PID.TID 0000.0001) %MON trcstat_ptracer70_sd         =   4.3675004633930894E-03
(PID.TID 0000.0001) %MON trcstat_ptracer70_del2       =   5.2209541352677320E-05
(PID.TID 0000.0001) %MON trcstat_ptracer71_max        =   4.6142946253100092E-01
(PID.TID 0000.0001) %MON trcstat_ptracer71_min        =   1.1387333244440433E-09
(PID.TID 0000.0001) %MON trcstat_ptracer71_mean       =   5.6830115554855972E-04
(PID.TID 0000.0001) %MON trcstat_ptracer71_sd         =   6.3875405042338783E-03
(PID.TID 0000.0001) %MON trcstat_ptracer71_del2       =   6.3498364836174869E-05
(PID.TID 0000.0001) %MON trcstat_ptracer72_max        =   4.3409664576762658E-01
(PID.TID 0000.0001) %MON trcstat_ptracer72_min        =   1.1387333244440433E-09
(PID.TID 0000.0001) %MON trcstat_ptracer72_mean       =   5.2325865091788608E-04
(PID.TID 0000.0001) %MON trcstat_ptracer72_sd         =   5.1298606987033165E-03
(PID.TID 0000.0001) %MON trcstat_ptracer72_del2       =   5.5019534239197148E-05
(PID.TID 0000.0001) %MON trcstat_ptracer73_max        =   4.3409664576762641E-01
(PID.TID 0000.0001) %MON trcstat_ptracer73_min        =   1.1387333244440433E-09
(PID.TID 0000.0001) %MON trcstat_ptracer73_mean       =   6.5286654190541051E-04
(PID.TID 0000.0001) %MON trcstat_ptracer73_sd         =   7.1569246710162394E-03
(PID.TID 0000.0001) %MON trcstat_ptracer73_del2       =   5.8354507714703149E-05
(PID.TID 0000.0001) %MON trcstat_ptracer74_max        =   4.3409664576762558E-01
(PID.TID 0000.0001) %MON trcstat_ptracer74_min        =   1.1387333244440433E-09
(PID.TID 0000.0001) %MON trcstat_ptracer74_mean       =   4.5130495463750476E-04
(PID.TID 0000.0001) %MON trcstat_ptracer74_sd         =   4.2084839959483766E-03
(PID.TID 0000.0001) %MON trcstat_ptracer74_del2       =   5.1341606202100089E-05
(PID.TID 0000.0001) %MON trcstat_ptracer75_max        =   4.1529773054123809E-01
(PID.TID 0000.0001) %MON trcstat_ptracer75_min        =   1.1432844712071128E-09
(PID.TID 0000.0001) %MON trcstat_ptracer75_mean       =   5.7190988367167197E-04
(PID.TID 0000.0001) %MON trcstat_ptracer75_sd         =   5.2585214933957092E-03
(PID.TID 0000.0001) %MON trcstat_ptracer75_del2       =   5.0882199975627493E-05
(PID.TID 0000.0001) %MON trcstat_ptracer76_max        =   4.5107376948828370E-01
(PID.TID 0000.0001) %MON trcstat_ptracer76_min        =   1.1432844715597091E-09
(PID.TID 0000.0001) %MON trcstat_ptracer76_mean       =   4.9077967891463219E-04
(PID.TID 0000.0001) %MON trcstat_ptracer76_sd         =   4.8831536472663624E-03
(PID.TID 0000.0001) %MON trcstat_ptracer76_del2       =   5.8508789904967298E-05
(PID.TID 0000.0001) %MON trcstat_ptracer77_max        =   4.3409664576762791E-01
(PID.TID 0000.0001) %MON trcstat_ptracer77_min        =   1.1387333244440433E-09
(PID.TID 0000.0001) %MON trcstat_ptracer77_mean       =   4.4180783074192979E-04
(PID.TID 0000.0001) %MON trcstat_ptracer77_sd         =   4.2701647777336205E-03
(PID.TID 0000.0001) %MON trcstat_ptracer77_del2       =   5.2940280021832617E-05
(PID.TID 0000.0001) %MON trcstat_ptracer78_max        =   4.1529773054125774E-01
(PID.TID 0000.0001) %MON trcstat_ptracer78_min        =   1.1432844712071128E-09
(PID.TID 0000.0001) %MON trcstat_ptracer78_mean       =   5.6775437911783008E-04
(PID.TID 0000.0001) %MON trcstat_ptracer78_sd         =   6.0459997864098988E-03
(PID.TID 0000.0001) %MON trcstat_ptracer78_del2       =   5.7534627520916721E-05
(PID.TID 0000.0001) %MON trcstat_ptracer79_max        =   5.1404457502200163E-01
(PID.TID 0000.0001) %MON trcstat_ptracer79_min        =   1.1432844715597091E-09
(PID.TID 0000.0001) %MON trcstat_ptracer79_mean       =   8.3781015118288438E-04
(PID.TID 0000.0001) %MON trcstat_ptracer79_sd         =   9.8722515742618415E-03
(PID.TID 0000.0001) %MON trcstat_ptracer79_del2       =   6.6091312131750582E-05
(PID.TID 0000.0001) %MON trcstat_ptracer80_max        =   4.5078220378869688E-01
(PID.TID 0000.0001) %MON trcstat_ptracer80_min        =   1.1432844715597091E-09
(PID.TID 0000.0001) %MON trcstat_ptracer80_mean       =   6.7319158945745514E-04
(PID.TID 0000.0001) %MON trcstat_ptracer80_sd         =   7.1192647794886344E-03
(PID.TID 0000.0001) %MON trcstat_ptracer80_del2       =   6.2973177329115579E-05
(PID.TID 0000.0001) %MON trcstat_ptracer81_max        =   4.3417239530417245E-01
(PID.TID 0000.0001) %MON trcstat_ptracer81_min        =   1.1387333244440433E-09
(PID.TID 0000.0001) %MON trcstat_ptracer81_mean       =   4.2435857652561106E-04
(PID.TID 0000.0001) %MON trcstat_ptracer81_sd         =   4.0085298116159292E-03
(PID.TID 0000.0001) %MON trcstat_ptracer81_del2       =   5.1726922759405493E-05
(PID.TID 0000.0001) %MON trcstat_ptracer82_max        =   4.3409664576762719E-01
(PID.TID 0000.0001) %MON trcstat_ptracer82_min        =   1.1387333244440433E-09
(PID.TID 0000.0001) %MON trcstat_ptracer82_mean       =   5.0718075489005301E-04
(PID.TID 0000.0001) %MON trcstat_ptracer82_sd         =   4.9775944302268482E-03
(PID.TID 0000.0001) %MON trcstat_ptracer82_del2       =   5.5370459707190378E-05
(PID.TID 0000.0001) %MON trcstat_ptracer83_max        =   4.3409664576762474E-01
(PID.TID 0000.0001) %MON trcstat_ptracer83_min        =   1.1387333244440433E-09
(PID.TID 0000.0001) %MON trcstat_ptracer83_mean       =   3.9950874492399236E-04
(PID.TID 0000.0001) %MON trcstat_ptracer83_sd         =   3.7704136610178436E-03
(PID.TID 0000.0001) %MON trcstat_ptracer83_del2       =   5.0220348820512009E-05
(PID.TID 0000.0001) %MON trcstat_ptracer84_max        =   4.5078220378869260E-01
(PID.TID 0000.0001) %MON trcstat_ptracer84_min        =   1.1432844715597091E-09
(PID.TID 0000.0001) %MON trcstat_ptracer84_mean       =   5.4668523216549190E-04
(PID.TID 0000.0001) %MON trcstat_ptracer84_sd         =   5.6057606435243870E-03
(PID.TID 0000.0001) %MON trcstat_ptracer84_del2       =   5.6665183631506404E-05
(PID.TID 0000.0001) %MON trcstat_ptracer85_max        =   4.3409664576762613E-01
(PID.TID 0000.0001) %MON trcstat_ptracer85_min        =   1.1387333244440433E-09
(PID.TID 0000.0001) %MON trcstat_ptracer85_mean       =   4.1323907823423640E-04
(PID.TID 0000.0001) %MON trcstat_ptracer85_sd         =   3.9001643250793990E-03
(PID.TID 0000.0001) %MON trcstat_ptracer85_del2       =   5.0769191344887398E-05
(PID.TID 0000.0001) %MON trcstat_ptracer86_max        =   4.3414755954649026E-01
(PID.TID 0000.0001) %MON trcstat_ptracer86_min        =   1.1387333244440433E-09
(PID.TID 0000.0001) %MON trcstat_ptracer86_mean       =   3.9552340535615516E-04
(PID.TID 0000.0001) %MON trcstat_ptracer86_sd         =   3.7839933709037472E-03
(PID.TID 0000.0001) %MON trcstat_ptracer86_del2       =   5.0357188623662444E-05
(PID.TID 0000.0001) %MON trcstat_ptracer87_max        =   4.3409664576762524E-01
(PID.TID 0000.0001) %MON trcstat_ptracer87_min        =   1.1387333244440433E-09
(PID.TID 0000.0001) %MON trcstat_ptracer87_mean       =   4.3093005708790693E-04
(PID.TID 0000.0001) %MON trcstat_ptracer87_sd         =   4.0096235296916997E-03
(PID.TID 0000.0001) %MON trcstat_ptracer87_del2       =   5.0787437159782204E-05
(PID.TID 0000.0001) %MON trcstat_ptracer88_max        =   4.3409664576762630E-01
(PID.TID 0000.0001) %MON trcstat_ptracer88_min        =   1.1387333244440433E-09
(PID.TID 0000.0001) %MON trcstat_ptracer88_mean       =   7.3868622375690602E-04
(PID.TID 0000.0001) %MON trcstat_ptracer88_sd         =   8.0553321896668240E-03
(PID.TID 0000.0001) %MON trcstat_ptracer88_del2       =   5.9699711856353085E-05
(PID.TID 0000.0001) %MON trcstat_ptracer89_max        =   5.1009711136740743E-01
(PID.TID 0000.0001) %MON trcstat_ptracer89_min        =   1.1432844712071128E-09
(PID.TID 0000.0001) %MON trcstat_ptracer89_mean       =   6.5820370611839010E-04
(PID.TID 0000.0001) %MON trcstat_ptracer89_sd         =   7.2819416943401445E-03
(PID.TID 0000.0001) %MON trcstat_ptracer89_del2       =   6.6991832407607696E-05
(PID.TID 0000.0001) %MON trcstat_ptracer90_max        =   4.1529773054124686E-01
(PID.TID 0000.0001) %MON trcstat_ptracer90_min        =   1.1432844712071128E-09
(PID.TID 0000.0001) %MON trcstat_ptracer90_mean       =   5.3592430348828465E-04
(PID.TID 0000.0001) %MON trcstat_ptracer90_sd         =   5.3618620094218793E-03
(PID.TID 0000.0001) %MON trcstat_ptracer90_del2       =   5.3518579894558220E-05
(PID.TID 0000.0001) %MON trcstat_ptracer91_max        =   4.5098477475579801E-01
(PID.TID 0000.0001) %MON trcstat_ptracer91_min        =   1.1432844715597091E-09
(PID.TID 0000.0001) %MON trcstat_ptracer91_mean       =   4.2066829093253389E-04
(PID.TID 0000.0001) %MON trcstat_ptracer91_sd         =   4.0114510999285855E-03
(PID.TID 0000.0001) %MON trcstat_ptracer91_del2       =   5.3163586189287173E-05
(PID.TID 0000.0001) %MON trcstat_ptracer92_max        =   4.3409664576762441E-01
(PID.TID 0000.0001) %MON trcstat_ptracer92_min        =   1.1387333244440433E-09
(PID.TID 0000.0001) %MON trcstat_ptracer92_mean       =   5.1599191763290362E-04
(PID.TID 0000.0001) %MON trcstat_ptracer92_sd         =   4.7450228866317869E-03
(PID.TID 0000.0001) %MON trcstat_ptracer92_del2       =   5.0820431077523122E-05
(PID.TID 0000.0001) %MON trcstat_ptracer93_max        =   4.6427712033826812E-01
(PID.TID 0000.0001) %MON trcstat_ptracer93_min        =   1.1387333244440433E-09
(PID.TID 0000.0001) %MON trcstat_ptracer93_mean       =   4.8935546568671003E-04
(PID.TID 0000.0001) %MON trcstat_ptracer93_sd         =   5.0101026998292907E-03
(PID.TID 0000.0001) %MON trcstat_ptracer93_del2       =   5.9425701267473467E-05
(PID.TID 0000.0001) %MON trcstat_ptracer94_max        =   4.3409664576762641E-01
(PID.TID 0000.0001) %MON trcstat_ptracer94_min        =   1.1387333244440433E-09
(PID.TID 0000.0001) %MON trcstat_ptracer94_mean       =   4.9047569420382483E-04
(PID.TID 0000.0001) %MON trcstat_ptracer94_sd         =   4.7911363674941997E-03
(PID.TID 0000.0001) %MON trcstat_ptracer94_del2       =   5.4288553171806578E-05
(PID.TID 0000.0001) %MON trcstat_ptracer95_max        =   4.5041037220275082E-01
(PID.TID 0000.0001) %MON trcstat_ptracer95_min        =   1.1387333244440433E-09
(PID.TID 0000.0001) %MON trcstat_ptracer95_mean       =   5.5290587849635467E-04
(PID.TID 0000.0001) %MON trcstat_ptracer95_sd         =   6.0399176123898434E-03
(PID.TID 0000.0001) %MON trcstat_ptracer95_del2       =   6.2884634665931574E-05
(PID.TID 0000.0001) %MON trcstat_ptracer96_max        =   8.4950460937440386E+00
(PID.TID 0000.0001) %MON trcstat_ptracer96_min        =   1.2700462075524849E-08
(PID.TID 0000.0001) %MON trcstat_ptracer96_mean       =   4.7659514626391562E-03
(PID.TID 0000.0001) %MON trcstat_ptracer96_sd         =   5.3056684004337676E-02
(PID.TID 0000.0001) %MON trcstat_ptracer96_del2       =   8.8289948257089744E-04
(PID.TID 0000.0001) %MON trcstat_ptracer97_max        =   8.7910578348332287E+00
(PID.TID 0000.0001) %MON trcstat_ptracer97_min        =   1.2700462074221573E-08
(PID.TID 0000.0001) %MON trcstat_ptracer97_mean       =   4.7875790761984132E-03
(PID.TID 0000.0001) %MON trcstat_ptracer97_sd         =   5.3777065450882407E-02
(PID.TID 0000.0001) %MON trcstat_ptracer97_del2       =   9.0580933870936561E-04
(PID.TID 0000.0001) // =======================================================
(PID.TID 0000.0001) // End MONITOR ptracers field statistics
(PID.TID 0000.0001) // =======================================================
 Computing Diagnostic #    224  TRAC01       Counter:       1   Parms: SMR     MR      
 Computing Diagnostic #    236  TRAC02       Counter:       1   Parms: SMR     MR      
 Computing Diagnostic #    248  TRAC03       Counter:       1   Parms: SMR     MR      
 Computing Diagnostic #    260  TRAC04       Counter:       1   Parms: SMR     MR      
 Computing Diagnostic #    272  TRAC05       Counter:       1   Parms: SMR     MR      
 Computing Diagnostic #    284  TRAC06       Counter:       1   Parms: SMR     MR      
 Computing Diagnostic #    296  TRAC07       Counter:       1   Parms: SMR     MR      
 Computing Diagnostic #    308  TRAC08       Counter:       1   Parms: SMR     MR      
 Computing Diagnostic #    320  TRAC09       Counter:       1   Parms: SMR     MR      
 Computing Diagnostic #    332  TRAC10       Counter:       1   Parms: SMR     MR      
 Computing Diagnostic #    344  TRAC11       Counter:       1   Parms: SMR     MR      
 Computing Diagnostic #    356  TRAC12       Counter:       1   Parms: SMR     MR      
 Computing Diagnostic #    368  TRAC13       Counter:       1   Parms: SMR     MR      
 Computing Diagnostic #    380  TRAC14       Counter:       1   Parms: SMR     MR      
 Computing Diagnostic #    392  TRAC15       Counter:       1   Parms: SMR     MR      
 Computing Diagnostic #    404  TRAC16       Counter:       1   Parms: SMR     MR      
 Computing Diagnostic #    416  TRAC17       Counter:       1   Parms: SMR     MR      
 Computing Diagnostic #    428  TRAC18       Counter:       1   Parms: SMR     MR      
 Computing Diagnostic #    440  TRAC19       Counter:       1   Parms: SMR     MR      
 Computing Diagnostic #    452  TRAC20       Counter:       1   Parms: SMR     MR      
 Computing Diagnostic #    464  TRAC21       Counter:       1   Parms: SMR     MR      
 Computing Diagnostic #    476  TRAC22       Counter:       1   Parms: SMR     MR      
 Computing Diagnostic #    488  TRAC23       Counter:       1   Parms: SMR     MR      
 Computing Diagnostic #    500  TRAC24       Counter:       1   Parms: SMR     MR      
 Computing Diagnostic #    512  TRAC25       Counter:       1   Parms: SMR     MR      
 Computing Diagnostic #    524  TRAC26       Counter:       1   Parms: SMR     MR      
 Computing Diagnostic #    536  TRAC27       Counter:       1   Parms: SMR     MR      
 Computing Diagnostic #    548  TRAC28       Counter:       1   Parms: SMR     MR      
 Computing Diagnostic #    560  TRAC29       Counter:       1   Parms: SMR     MR      
 Computing Diagnostic #    572  TRAC30       Counter:       1   Parms: SMR     MR      
 Computing Diagnostic #    584  TRAC31       Counter:       1   Parms: SMR     MR      
 Computing Diagnostic #    596  TRAC32       Counter:       1   Parms: SMR     MR      
 Computing Diagnostic #    608  TRAC33       Counter:       1   Parms: SMR     MR      
 Computing Diagnostic #    620  TRAC34       Counter:       1   Parms: SMR     MR      
 Computing Diagnostic #    632  TRAC35       Counter:       1   Parms: SMR     MR      
 Computing Diagnostic #    644  TRAC36       Counter:       1   Parms: SMR     MR      
 Computing Diagnostic #    656  TRAC37       Counter:       1   Parms: SMR     MR      
 Computing Diagnostic #    668  TRAC38       Counter:       1   Parms: SMR     MR      
 Computing Diagnostic #    680  TRAC39       Counter:       1   Parms: SMR     MR      
 Computing Diagnostic #    692  TRAC40       Counter:       1   Parms: SMR     MR      
 Computing Diagnostic #    704  TRAC41       Counter:       1   Parms: SMR     MR      
 Computing Diagnostic #    716  TRAC42       Counter:       1   Parms: SMR     MR      
 Computing Diagnostic #    728  TRAC43       Counter:       1   Parms: SMR     MR      
 Computing Diagnostic #    740  TRAC44       Counter:       1   Parms: SMR     MR      
 Computing Diagnostic #    752  TRAC45       Counter:       1   Parms: SMR     MR      
 Computing Diagnostic #    764  TRAC46       Counter:       1   Parms: SMR     MR      
 Computing Diagnostic #    776  TRAC47       Counter:       1   Parms: SMR     MR      
 Computing Diagnostic #    788  TRAC48       Counter:       1   Parms: SMR     MR      
 Computing Diagnostic #    800  TRAC49       Counter:       1   Parms: SMR     MR      
 Computing Diagnostic #    812  TRAC50       Counter:       1   Parms: SMR     MR      
 Computing Diagnostic #    824  TRAC51       Counter:       1   Parms: SMR     MR      
 Computing Diagnostic #    836  TRAC52       Counter:       1   Parms: SMR     MR      
 Computing Diagnostic #    848  TRAC53       Counter:       1   Parms: SMR     MR      
 Computing Diagnostic #    860  TRAC54       Counter:       1   Parms: SMR     MR      
 Computing Diagnostic #    872  TRAC55       Counter:       1   Parms: SMR     MR      
 Computing Diagnostic #    884  TRAC56       Counter:       1   Parms: SMR     MR      
 Computing Diagnostic #    896  TRAC57       Counter:       1   Parms: SMR     MR      
 Computing Diagnostic #    908  TRAC58       Counter:       1   Parms: SMR     MR      
 Computing Diagnostic #    920  TRAC59       Counter:       1   Parms: SMR     MR      
 Computing Diagnostic #    932  TRAC60       Counter:       1   Parms: SMR     MR      
 Computing Diagnostic #    944  TRAC61       Counter:       1   Parms: SMR     MR      
 Computing Diagnostic #    956  TRAC62       Counter:       1   Parms: SMR     MR      
 Computing Diagnostic #    968  TRAC63       Counter:       1   Parms: SMR     MR      
 Computing Diagnostic #    980  TRAC64       Counter:       1   Parms: SMR     MR      
 Computing Diagnostic #    992  TRAC65       Counter:       1   Parms: SMR     MR      
 Computing Diagnostic #   1004  TRAC66       Counter:       1   Parms: SMR     MR      
 Computing Diagnostic #   1016  TRAC67       Counter:       1   Parms: SMR     MR      
 Computing Diagnostic #   1028  TRAC68       Counter:       1   Parms: SMR     MR      
 Computing Diagnostic #   1040  TRAC69       Counter:       1   Parms: SMR     MR      
 Computing Diagnostic #   1052  TRAC70       Counter:       1   Parms: SMR     MR      
 Computing Diagnostic #   1064  TRAC71       Counter:       1   Parms: SMR     MR      
 Computing Diagnostic #   1076  TRAC72       Counter:       1   Parms: SMR     MR      
 Computing Diagnostic #   1088  TRAC73       Counter:       1   Parms: SMR     MR      
 Computing Diagnostic #   1100  TRAC74       Counter:       1   Parms: SMR     MR      
 Computing Diagnostic #   1112  TRAC75       Counter:       1   Parms: SMR     MR      
 Computing Diagnostic #   1124  TRAC76       Counter:       1   Parms: SMR     MR      
 Computing Diagnostic #   1136  TRAC77       Counter:       1   Parms: SMR     MR      
 Computing Diagnostic #   1148  TRAC78       Counter:       1   Parms: SMR     MR      
 Computing Diagnostic #   1160  TRAC79       Counter:       1   Parms: SMR     MR      
 Computing Diagnostic #   1172  TRAC80       Counter:       1   Parms: SMR     MR      
 Computing Diagnostic #   1184  TRAC81       Counter:       1   Parms: SMR     MR      
 Computing Diagnostic #   1196  TRAC82       Counter:       1   Parms: SMR     MR      
 Computing Diagnostic #   1208  TRAC83       Counter:       1   Parms: SMR     MR      
 Computing Diagnostic #   1220  TRAC84       Counter:       1   Parms: SMR     MR      
 Computing Diagnostic #   1232  TRAC85       Counter:       1   Parms: SMR     MR      
 Computing Diagnostic #   1244  TRAC86       Counter:       1   Parms: SMR     MR      
 Computing Diagnostic #   1256  TRAC87       Counter:       1   Parms: SMR     MR      
 Computing Diagnostic #   1268  TRAC88       Counter:       1   Parms: SMR     MR      
 Computing Diagnostic #   1280  TRAC89       Counter:       1   Parms: SMR     MR      
 Computing Diagnostic #   1292  TRAC90       Counter:       1   Parms: SMR     MR      
 Computing Diagnostic #   1304  TRAC91       Counter:       1   Parms: SMR     MR      
 Computing Diagnostic #   1316  TRAC92       Counter:       1   Parms: SMR     MR      
 Computing Diagnostic #   1328  TRAC93       Counter:       1   Parms: SMR     MR      
 Computing Diagnostic #   1340  TRAC94       Counter:       1   Parms: SMR     MR      
 Computing Diagnostic #   1352  TRAC95       Counter:       1   Parms: SMR     MR      
 Computing Diagnostic #   1364  TRAC96       Counter:       1   Parms: SMR     MR      
 Computing Diagnostic #   1376  TRAC97       Counter:       1   Parms: SMR     MR      
 Computing Diagnostic #   1393  PAR01        Counter:       8   Parms: SM P    MR      
 Computing Diagnostic #   1400  DIC_c01      Counter:       4   Parms: SM P    MR      
 Computing Diagnostic #   1411  DIC_c02      Counter:       4   Parms: SM P    MR      
 Computing Diagnostic #   1401  c01_DOC      Counter:       4   Parms: SM P    MR      
 Computing Diagnostic #   1412  c02_DOC      Counter:       4   Parms: SM P    MR      
 Computing Diagnostic #   1402  c01_POC      Counter:       4   Parms: SM P    MR      
 Computing Diagnostic #   1413  c02_POC      Counter:       4   Parms: SM P    MR      
 Computing Diagnostic #   1392  PARF         Counter:       4   Parms: SM P    MR      
 Computing Diagnostic #   1389  atten        Counter:       4   Parms: SM P    MR      
 Computing Diagnostic #   1391  surfPAR      Counter:       4   Parms: SM P    MR      
 Computing Diagnostic #   1390  exfPAR       Counter:       1   Parms: SM P    MR      
 Computing Diagnostic #   1394  limn01       Counter:       4   Parms: SM P    MR      
 Computing Diagnostic #   1395  limp01       Counter:       4   Parms: SM P    MR      
 Computing Diagnostic #   1396  limsi01      Counter:       4   Parms: SM P    MR      
 Computing Diagnostic #   1397  limfe01      Counter:       4   Parms: SM P    MR      
 Computing Diagnostic #   1398  limI01       Counter:       4   Parms: SM P    MR      
 Computing Diagnostic #   1399  limT01       Counter:       4   Parms: SM P    MR      
 Computing Diagnostic #   1403  c01_c        Counter:       4   Parms: SM P    MR      
 Computing Diagnostic #   1414  c02_c        Counter:       4   Parms: SM P    MR      
 Computing Diagnostic #   1426  c_c03        Counter:       4   Parms: SM P    MR      
 Computing Diagnostic #   1437  c_c04        Counter:       4   Parms: SM P    MR      
 Computing Diagnostic #   2274  c_DOC        Counter:       4   Parms: SM P    MR      
 Computing Diagnostic #   2275  c_POC        Counter:       4   Parms: SM P    MR      
 Computing Diagnostic #   2276  c_PIC        Counter:       4   Parms: SM P    MR      
 Computing Diagnostic #   2277  n_DON        Counter:       4   Parms: SM P    MR      
 Computing Diagnostic #   2278  n_PON        Counter:       4   Parms: SM P    MR      
 Computing Diagnostic #   2279  p_DOP        Counter:       4   Parms: SM P    MR      
 Computing Diagnostic #   2280  p_POP        Counter:       4   Parms: SM P    MR      
(PID.TID 0000.0001) %CHECKPOINT   5644804 ckptA
(PID.TID 0000.0001)   Seconds in section "ALL                    [THE_MODEL_MAIN]":
(PID.TID 0000.0001)           User time:   340.38000000000000
(PID.TID 0000.0001)         System time:   57.689999999999998
(PID.TID 0000.0001)     Wall clock time:   593.35914087295532
(PID.TID 0000.0001)          No. starts:           1
(PID.TID 0000.0001)           No. stops:           1
(PID.TID 0000.0001)   Seconds in section "INITIALISE_FIXED       [THE_MODEL_MAIN]":
(PID.TID 0000.0001)           User time:  0.70999999999999996
(PID.TID 0000.0001)         System time:   8.0000000000000002E-002
(PID.TID 0000.0001)     Wall clock time:   3.6829500198364258
(PID.TID 0000.0001)          No. starts:           1
(PID.TID 0000.0001)           No. stops:           1
(PID.TID 0000.0001)   Seconds in section "THE_MAIN_LOOP          [THE_MODEL_MAIN]":
(PID.TID 0000.0001)           User time:   339.66000000000003
(PID.TID 0000.0001)         System time:   57.600000000000001
(PID.TID 0000.0001)     Wall clock time:   589.67466092109680
(PID.TID 0000.0001)          No. starts:           1
(PID.TID 0000.0001)           No. stops:           1
(PID.TID 0000.0001)   Seconds in section "INITIALISE_VARIA    [THE_MAIN_LOOP]":
(PID.TID 0000.0001)           User time:   5.0000000000000000
(PID.TID 0000.0001)         System time:   6.8200000000000003
(PID.TID 0000.0001)     Wall clock time:   71.361209869384766
(PID.TID 0000.0001)          No. starts:           1
(PID.TID 0000.0001)           No. stops:           1
(PID.TID 0000.0001)   Seconds in section "MAIN LOOP           [THE_MAIN_LOOP]":
(PID.TID 0000.0001)           User time:   334.66000000000003
(PID.TID 0000.0001)         System time:   50.780000000000001
(PID.TID 0000.0001)     Wall clock time:   518.31341481208801
(PID.TID 0000.0001)          No. starts:           1
(PID.TID 0000.0001)           No. stops:           1
(PID.TID 0000.0001)   Seconds in section "FORWARD_STEP        [THE_MAIN_LOOP]":
(PID.TID 0000.0001)           User time:   334.65999999999997
(PID.TID 0000.0001)         System time:   50.779999999999994
(PID.TID 0000.0001)     Wall clock time:   518.31336402893066
(PID.TID 0000.0001)          No. starts:           4
(PID.TID 0000.0001)           No. stops:           4
(PID.TID 0000.0001)   Seconds in section "DO_STATEVARS_DIAGS  [FORWARD_STEP]":
(PID.TID 0000.0001)           User time:  0.55000000000006821
(PID.TID 0000.0001)         System time:   0.0000000000000000
(PID.TID 0000.0001)     Wall clock time:  0.55365610122680664
(PID.TID 0000.0001)          No. starts:           8
(PID.TID 0000.0001)           No. stops:           8
(PID.TID 0000.0001)   Seconds in section "LOAD_FIELDS_DRIVER  [FORWARD_STEP]":
(PID.TID 0000.0001)           User time:   9.9999999999965894E-002
(PID.TID 0000.0001)         System time:   1.9999999999996021E-002
(PID.TID 0000.0001)     Wall clock time:  0.30986571311950684
(PID.TID 0000.0001)          No. starts:           4
(PID.TID 0000.0001)           No. stops:           4
(PID.TID 0000.0001)   Seconds in section "EXF_GETFORCING     [LOAD_FLDS_DRIVER]":
(PID.TID 0000.0001)           User time:   7.9999999999984084E-002
(PID.TID 0000.0001)         System time:   0.0000000000000000
(PID.TID 0000.0001)     Wall clock time:   8.3839893341064453E-002
(PID.TID 0000.0001)          No. starts:           4
(PID.TID 0000.0001)           No. stops:           4
(PID.TID 0000.0001)   Seconds in section "EXTERNAL_FLDS_LOAD [LOAD_FLDS_DRIVER]":
(PID.TID 0000.0001)           User time:   1.0000000000047748E-002
(PID.TID 0000.0001)         System time:   1.0000000000005116E-002
(PID.TID 0000.0001)     Wall clock time:   7.1650981903076172E-002
(PID.TID 0000.0001)          No. starts:           4
(PID.TID 0000.0001)           No. stops:           4
(PID.TID 0000.0001)   Seconds in section "DO_ATMOSPHERIC_PHYS [FORWARD_STEP]":
(PID.TID 0000.0001)           User time:   0.0000000000000000
(PID.TID 0000.0001)         System time:   0.0000000000000000
(PID.TID 0000.0001)     Wall clock time:   5.0067901611328125E-005
(PID.TID 0000.0001)          No. starts:           4
(PID.TID 0000.0001)           No. stops:           4
(PID.TID 0000.0001)   Seconds in section "DO_OCEANIC_PHYS     [FORWARD_STEP]":
(PID.TID 0000.0001)           User time:  0.31999999999999318
(PID.TID 0000.0001)         System time:   0.0000000000000000
(PID.TID 0000.0001)     Wall clock time:  0.32819867134094238
(PID.TID 0000.0001)          No. starts:           4
(PID.TID 0000.0001)           No. stops:           4
(PID.TID 0000.0001)   Seconds in section "GCHEM_CALC_TENDENCY [FORWARD_STEP]":
(PID.TID 0000.0001)           User time:   0.0000000000000000
(PID.TID 0000.0001)         System time:   0.0000000000000000
(PID.TID 0000.0001)     Wall clock time:   4.1007995605468750E-005
(PID.TID 0000.0001)          No. starts:           4
(PID.TID 0000.0001)           No. stops:           4
(PID.TID 0000.0001)   Seconds in section "THERMODYNAMICS      [FORWARD_STEP]":
(PID.TID 0000.0001)           User time:   59.570000000000050
(PID.TID 0000.0001)         System time:   0.0000000000000000
(PID.TID 0000.0001)     Wall clock time:   59.907765865325928
(PID.TID 0000.0001)          No. starts:           4
(PID.TID 0000.0001)           No. stops:           4
(PID.TID 0000.0001)   Seconds in section "DYNAMICS            [FORWARD_STEP]":
(PID.TID 0000.0001)           User time:   1.6200000000000045
(PID.TID 0000.0001)         System time:   0.0000000000000000
(PID.TID 0000.0001)     Wall clock time:   1.6316237449645996
(PID.TID 0000.0001)          No. starts:           4
(PID.TID 0000.0001)           No. stops:           4
(PID.TID 0000.0001)   Seconds in section "SOLVE_FOR_PRESSURE  [FORWARD_STEP]":
(PID.TID 0000.0001)           User time:  0.16000000000002501
(PID.TID 0000.0001)         System time:   0.0000000000000000
(PID.TID 0000.0001)     Wall clock time:  0.16997098922729492
(PID.TID 0000.0001)          No. starts:           4
(PID.TID 0000.0001)           No. stops:           4
(PID.TID 0000.0001)   Seconds in section "MOM_CORRECTION_STEP [FORWARD_STEP]":
(PID.TID 0000.0001)           User time:   2.9999999999972715E-002
(PID.TID 0000.0001)         System time:   0.0000000000000000
(PID.TID 0000.0001)     Wall clock time:   2.8180122375488281E-002
(PID.TID 0000.0001)          No. starts:           4
(PID.TID 0000.0001)           No. stops:           4
(PID.TID 0000.0001)   Seconds in section "INTEGR_CONTINUITY   [FORWARD_STEP]":
(PID.TID 0000.0001)           User time:   5.0000000000011369E-002
(PID.TID 0000.0001)         System time:   0.0000000000000000
(PID.TID 0000.0001)     Wall clock time:   4.6514987945556641E-002
(PID.TID 0000.0001)          No. starts:           4
(PID.TID 0000.0001)           No. stops:           4
(PID.TID 0000.0001)   Seconds in section "TRC_CORRECTION_STEP [FORWARD_STEP]":
(PID.TID 0000.0001)           User time:  0.64999999999997726
(PID.TID 0000.0001)         System time:   0.0000000000000000
(PID.TID 0000.0001)     Wall clock time:  0.65689802169799805
(PID.TID 0000.0001)          No. starts:           4
(PID.TID 0000.0001)           No. stops:           4
(PID.TID 0000.0001)   Seconds in section "GCHEM_FORCING_SEP  [FORWARD_STEP]":
(PID.TID 0000.0001)           User time:   256.20000000000005
(PID.TID 0000.0001)         System time:   38.740000000000002
(PID.TID 0000.0001)     Wall clock time:   298.03293967247009
(PID.TID 0000.0001)          No. starts:           4
(PID.TID 0000.0001)           No. stops:           4
(PID.TID 0000.0001)   Seconds in section "BLOCKING_EXCHANGES  [FORWARD_STEP]":
(PID.TID 0000.0001)           User time:  0.35999999999995680
(PID.TID 0000.0001)         System time:   0.0000000000000000
(PID.TID 0000.0001)     Wall clock time:  0.36471700668334961
(PID.TID 0000.0001)          No. starts:           4
(PID.TID 0000.0001)           No. stops:           4
(PID.TID 0000.0001)   Seconds in section "DO_STATEVARS_TAVE   [FORWARD_STEP]":
(PID.TID 0000.0001)           User time:   1.0400000000000773
(PID.TID 0000.0001)         System time:   0.0000000000000000
(PID.TID 0000.0001)     Wall clock time:   1.0485377311706543
(PID.TID 0000.0001)          No. starts:           4
(PID.TID 0000.0001)           No. stops:           4
(PID.TID 0000.0001)   Seconds in section "MONITOR             [FORWARD_STEP]":
(PID.TID 0000.0001)           User time:  0.34999999999996589
(PID.TID 0000.0001)         System time:   0.0000000000000000
(PID.TID 0000.0001)     Wall clock time:  0.34660744667053223
(PID.TID 0000.0001)          No. starts:           4
(PID.TID 0000.0001)           No. stops:           4
(PID.TID 0000.0001)   Seconds in section "DO_THE_MODEL_IO     [FORWARD_STEP]":
(PID.TID 0000.0001)           User time:   12.909999999999968
(PID.TID 0000.0001)         System time:   11.919999999999987
(PID.TID 0000.0001)     Wall clock time:   154.02137708663940
(PID.TID 0000.0001)          No. starts:           4
(PID.TID 0000.0001)           No. stops:           4
(PID.TID 0000.0001)   Seconds in section "DO_WRITE_PICKUP     [FORWARD_STEP]":
(PID.TID 0000.0001)           User time:  0.75000000000000000
(PID.TID 0000.0001)         System time:  0.10000000000000142
(PID.TID 0000.0001)     Wall clock time:  0.86556529998779297
(PID.TID 0000.0001)          No. starts:           4
(PID.TID 0000.0001)           No. stops:           4
(PID.TID 0000.0001) // ======================================================
(PID.TID 0000.0001) // Tile <-> Tile communication statistics
(PID.TID 0000.0001) // ======================================================
(PID.TID 0000.0001) // o Tile number: 000001
(PID.TID 0000.0001) //         No. X exchanges =              0
(PID.TID 0000.0001) //            Max. X spins =              0
(PID.TID 0000.0001) //            Min. X spins =     1000000000
(PID.TID 0000.0001) //          Total. X spins =              0
(PID.TID 0000.0001) //            Avg. X spins =       0.00E+00
(PID.TID 0000.0001) //         No. Y exchanges =              0
(PID.TID 0000.0001) //            Max. Y spins =              0
(PID.TID 0000.0001) //            Min. Y spins =     1000000000
(PID.TID 0000.0001) //          Total. Y spins =              0
(PID.TID 0000.0001) //            Avg. Y spins =       0.00E+00
(PID.TID 0000.0001) // o Tile number: 000002
(PID.TID 0000.0001) //         No. X exchanges =              0
(PID.TID 0000.0001) //            Max. X spins =              0
(PID.TID 0000.0001) //            Min. X spins =     1000000000
(PID.TID 0000.0001) //          Total. X spins =              0
(PID.TID 0000.0001) //            Avg. X spins =       0.00E+00
(PID.TID 0000.0001) //         No. Y exchanges =              0
(PID.TID 0000.0001) //            Max. Y spins =              0
(PID.TID 0000.0001) //            Min. Y spins =     1000000000
(PID.TID 0000.0001) //          Total. Y spins =              0
(PID.TID 0000.0001) //            Avg. Y spins =       0.00E+00
(PID.TID 0000.0001) // o Thread number: 000001
(PID.TID 0000.0001) //            No. barriers =           8572
(PID.TID 0000.0001) //      Max. barrier spins =              1
(PID.TID 0000.0001) //      Min. barrier spins =              1
(PID.TID 0000.0001) //     Total barrier spins =           8572
(PID.TID 0000.0001) //      Avg. barrier spins =       1.00E+00
PROGRAM MAIN: Execution ended Normally
