(PID.TID 0000.0001) 
(PID.TID 0000.0001) // ======================================================
(PID.TID 0000.0001) //                      MITgcm UV
(PID.TID 0000.0001) //                      =========
(PID.TID 0000.0001) // ======================================================
(PID.TID 0000.0001) // execution environment starting up...
(PID.TID 0000.0001) 
(PID.TID 0000.0001) // Build user:        jahn
(PID.TID 0000.0001) // Build host:        saramago.mit.edu
(PID.TID 0000.0001) // Build date:        Fri Jan 25 15:13:30 EST 2013
(PID.TID 0000.0001) 
(PID.TID 0000.0001) // =======================================================
(PID.TID 0000.0001) // Execution Environment parameter file "eedata"
(PID.TID 0000.0001) // =======================================================
(PID.TID 0000.0001) ># Example "eedata" file
(PID.TID 0000.0001) ># Lines beginning "#" are comments
(PID.TID 0000.0001) ># nTx - No. threads per process in X
(PID.TID 0000.0001) ># nTy - No. threads per process in Y
(PID.TID 0000.0001) > &EEPARMS
(PID.TID 0000.0001) > nTx=1,nTy=1
(PID.TID 0000.0001) > /
(PID.TID 0000.0001) ># Note: Some systems use & as the
(PID.TID 0000.0001) ># namelist terminator. Other systems
(PID.TID 0000.0001) ># use a / character (as shown here).
(PID.TID 0000.0001) 
(PID.TID 0000.0001) // =======================================================
(PID.TID 0000.0001) // Computational Grid Specification ( see files "SIZE.h" )
(PID.TID 0000.0001) //                                  ( and "eedata"       )
(PID.TID 0000.0001) // =======================================================
(PID.TID 0000.0001)      nPx =    1 ; /* No. processes in X */
(PID.TID 0000.0001)      nPy =    1 ; /* No. processes in Y */
(PID.TID 0000.0001)      nSx =    1 ; /* No. tiles in X per process */
(PID.TID 0000.0001)      nSy =    1 ; /* No. tiles in Y per process */
(PID.TID 0000.0001)      sNx =    1 ; /* Tile size in X */
(PID.TID 0000.0001)      sNy =    1 ; /* Tile size in Y */
(PID.TID 0000.0001)      OLx =    2 ; /* Tile overlap distance in X */
(PID.TID 0000.0001)      OLy =    2 ; /* Tile overlap distance in Y */
(PID.TID 0000.0001)      nTx =    1 ; /* No. threads in X per process */
(PID.TID 0000.0001)      nTy =    1 ; /* No. threads in Y per process */
(PID.TID 0000.0001)       Nr =   35 ; /* No. levels in the vertical   */
(PID.TID 0000.0001)       Nx =    1 ; /* Total domain size in X ( = nPx*nSx*sNx ) */
(PID.TID 0000.0001)       Ny =    1 ; /* Total domain size in Y ( = nPy*nSy*sNy ) */
(PID.TID 0000.0001)   nTiles =    1 ; /* Total no. tiles per process ( = nSx*nSy ) */
(PID.TID 0000.0001)   nProcs =    1 ; /* Total no. processes ( = nPx*nPy ) */
(PID.TID 0000.0001) nThreads =    1 ; /* Total no. threads per process ( = nTx*nTy ) */
(PID.TID 0000.0001) usingMPI =    F ; /* Flag used to control whether MPI is in use */
(PID.TID 0000.0001)                   /*  note: To execute a program with MPI calls */
(PID.TID 0000.0001)                   /*  it must be launched appropriately e.g     */
(PID.TID 0000.0001)                   /*  "mpirun -np 64 ......"                    */
(PID.TID 0000.0001) useCoupler=    F ;/* Flag used to control communications with   */
(PID.TID 0000.0001)                   /*  other model components, through a coupler */
(PID.TID 0000.0001) debugMode =    F ; /* print debug msg. (sequence of S/R calls)  */
(PID.TID 0000.0001) printMapIncludesZeros=    F ; /* print zeros in Std.Output maps */
(PID.TID 0000.0001) maxLengthPrt1D=   65 /* maxLength of 1D array printed to StdOut */
(PID.TID 0000.0001) 
(PID.TID 0000.0001) // ======================================================
(PID.TID 0000.0001) // Mapping of tiles to threads
(PID.TID 0000.0001) // ======================================================
(PID.TID 0000.0001) // -o- Thread   1, tiles (   1:   1,   1:   1)
(PID.TID 0000.0001) 
(PID.TID 0000.0001) // ======================================================
(PID.TID 0000.0001) // Tile <-> Tile connectvity table
(PID.TID 0000.0001) // ======================================================
(PID.TID 0000.0001) // Tile number: 000001 (process no. = 000000)
(PID.TID 0000.0001) //        WEST: Tile = 000001, Process = 000000, Comm = put
(PID.TID 0000.0001) //                bi = 000001, bj = 000001
(PID.TID 0000.0001) //        EAST: Tile = 000001, Process = 000000, Comm = put
(PID.TID 0000.0001) //                bi = 000001, bj = 000001
(PID.TID 0000.0001) //       SOUTH: Tile = 000001, Process = 000000, Comm = put
(PID.TID 0000.0001) //                bi = 000001, bj = 000001
(PID.TID 0000.0001) //       NORTH: Tile = 000001, Process = 000000, Comm = put
(PID.TID 0000.0001) //                bi = 000001, bj = 000001
(PID.TID 0000.0001) 
(PID.TID 0000.0001)  INI_PARMS: opening model parameter file "data"
(PID.TID 0000.0001)  OPEN_COPY_DATA_FILE: opening file data
(PID.TID 0000.0001) // =======================================================
(PID.TID 0000.0001) // Parameter file "data"
(PID.TID 0000.0001) // =======================================================
(PID.TID 0000.0001) >#
(PID.TID 0000.0001) ># ******************************
(PID.TID 0000.0001) ># Model parameters
(PID.TID 0000.0001) ># Continuous equation parameters
(PID.TID 0000.0001) ># ******************************
(PID.TID 0000.0001) >&PARM01
(PID.TID 0000.0001) >tRef= 26.5, 26.1, 26., 25.5, 25.4, 24.9, 24.5, 24.0, 23.7,
(PID.TID 0000.0001) >      23.3, 23.1, 22.8, 22.5, 22.1, 21.6, 20.6, 19.5, 18.4,
(PID.TID 0000.0001) >      17.3, 16.6, 15.5, 14.6, 13.8, 13.1, 11.6, 10.1, 7.7,
(PID.TID 0000.0001) >      5.3, 4.1, 3.7, 3.7, 3.4, 3.0, 2.8, 2.6,
(PID.TID 0000.0001) >sRef= 35*35.00,
(PID.TID 0000.0001) >no_slip_sides=.false.,
(PID.TID 0000.0001) >no_slip_bottom=.TRUE.,
(PID.TID 0000.0001) >viscAz=0.e0,
(PID.TID 0000.0001) >viscAh=0.e0,
(PID.TID 0000.0001) >diffKhT=1.E2,
(PID.TID 0000.0001) >diffKzT=1.E-4,
(PID.TID 0000.0001) >diffKhS=0.D0,
(PID.TID 0000.0001) >diffKzS=0.D0,
(PID.TID 0000.0001) >beta=1.E-11,
(PID.TID 0000.0001) >tAlpha=2.E-4,
(PID.TID 0000.0001) >sBeta =7.4E-4,
(PID.TID 0000.0001) >gravity=9.81,
(PID.TID 0000.0001) >gBaro=9.81,
(PID.TID 0000.0001) >rigidLid=.TRUE.,
(PID.TID 0000.0001) >implicitFreeSurface=.false.,
(PID.TID 0000.0001) >eosType='JMD95Z',
(PID.TID 0000.0001) >saltStepping=.FALSE.,
(PID.TID 0000.0001) >tempStepping=.TRUE.,
(PID.TID 0000.0001) >tempAdvection=.TRUE.,
(PID.TID 0000.0001) >momStepping=.FALSE.,
(PID.TID 0000.0001) >implicitDiffusion=.true.,
(PID.TID 0000.0001) >implicitViscosity=.false.,
(PID.TID 0000.0001) >allowFreezing=.false.,
(PID.TID 0000.0001) >useSingleCpuIO=.TRUE.,
(PID.TID 0000.0001) >useCDscheme=.FALSE.,
(PID.TID 0000.0001) >tempAdvScheme = 3,
(PID.TID 0000.0001) >saltAdvScheme = 3,
(PID.TID 0000.0001) >writeBinaryPrec= 64,
(PID.TID 0000.0001) >/
(PID.TID 0000.0001) >
(PID.TID 0000.0001) ># **************************
(PID.TID 0000.0001) ># Elliptic solver parameters
(PID.TID 0000.0001) ># **************************
(PID.TID 0000.0001) >&PARM02
(PID.TID 0000.0001) >cg2dMaxIters=300,
(PID.TID 0000.0001) >cg2dTargetResidual=1.E-7,
(PID.TID 0000.0001) >/
(PID.TID 0000.0001) >
(PID.TID 0000.0001) ># ************************
(PID.TID 0000.0001) ># Time stepping parameters
(PID.TID 0000.0001) ># ************************
(PID.TID 0000.0001) >&PARM03
(PID.TID 0000.0001) > nIter0=0,
(PID.TID 0000.0001) >#nTimeSteps=86400,
(PID.TID 0000.0001) > nTimeSteps=4,
(PID.TID 0000.0001) > deltaTmom= 3600.,
(PID.TID 0000.0001) > deltaTtracer= 3600.,
(PID.TID 0000.0001) > deltaTClock = 3600.,
(PID.TID 0000.0001) > cAdjFreq    = -1.,
(PID.TID 0000.0001) > abEps=0.1,
(PID.TID 0000.0001) > pChkptFreq  = 31104000.0,
(PID.TID 0000.0001) > chkptFreq   = 31104000.0,
(PID.TID 0000.0001) > dumpFreq    = 31104000.0,
(PID.TID 0000.0001) > taveFreq    = 2592000.,
(PID.TID 0000.0001) >#monitorFreq = 2592000.,
(PID.TID 0000.0001) > monitorFreq = 1.,
(PID.TID 0000.0001) > tauThetaClimRelax=259200.,
(PID.TID 0000.0001) > tauSaltClimRelax=0.,
(PID.TID 0000.0001) > periodicExternalForcing=.TRUE.,
(PID.TID 0000.0001) > externForcingPeriod=2592000.,
(PID.TID 0000.0001) > externForcingCycle=31104000.,
(PID.TID 0000.0001) >/
(PID.TID 0000.0001) >
(PID.TID 0000.0001) ># *******************
(PID.TID 0000.0001) ># Gridding parameters
(PID.TID 0000.0001) ># *******************
(PID.TID 0000.0001) >&PARM04
(PID.TID 0000.0001) >usingCartesianGrid=.FALSE.,
(PID.TID 0000.0001) >usingSphericalPolarGrid=.TRUE.,
(PID.TID 0000.0001) >delX=1*1.E0,
(PID.TID 0000.0001) >delY=1*1.E0,
(PID.TID 0000.0001) >delZ=14*10, 5*15, 4*20, 2*50, 100, 2*150, 200, 300, 3*400, 2*500,
(PID.TID 0000.0001) >xgOrigin=335,
(PID.TID 0000.0001) >ygOrigin=-18.,
(PID.TID 0000.0001) >/
(PID.TID 0000.0001) >
(PID.TID 0000.0001) ># **********
(PID.TID 0000.0001) ># Data Files
(PID.TID 0000.0001) ># **********
(PID.TID 0000.0001) >&PARM05
(PID.TID 0000.0001) >bathyFile=       '../input/input/bathyneg.bin',
(PID.TID 0000.0001) >hydrogThetaFile= '../input/input/loc1_temp_janprof.bin',
(PID.TID 0000.0001) >hydrogSaltFile=  '../input/input/salt_uniform.bin',
(PID.TID 0000.0001) >zonalWindFile=   '',
(PID.TID 0000.0001) >meridWindFile=   '',
(PID.TID 0000.0001) >thetaClimFile=   '../input/input/loc1_temp_monsurf.bin',
(PID.TID 0000.0001) >saltClimFile=    '',
(PID.TID 0000.0001) >surfQFile=       '',
(PID.TID 0000.0001) >EmPmRFile=       '',
(PID.TID 0000.0001) >/
(PID.TID 0000.0001) 
(PID.TID 0000.0001)  INI_PARMS ; starts to read PARM01
(PID.TID 0000.0001)  INI_PARMS ; read PARM01 : OK
(PID.TID 0000.0001)  INI_PARMS ; starts to read PARM02
(PID.TID 0000.0001)  INI_PARMS ; read PARM02 : OK
(PID.TID 0000.0001)  INI_PARMS ; starts to read PARM03
(PID.TID 0000.0001)  INI_PARMS ; read PARM03 : OK
(PID.TID 0000.0001)  INI_PARMS ; starts to read PARM04
(PID.TID 0000.0001)  INI_PARMS ; read PARM04 : OK
(PID.TID 0000.0001)  INI_PARMS ; starts to read PARM05
(PID.TID 0000.0001)  INI_PARMS ; read PARM05 : OK
(PID.TID 0000.0001)  INI_PARMS: finished reading file "data"
(PID.TID 0000.0001)  PACKAGES_BOOT: opening data.pkg
(PID.TID 0000.0001)  OPEN_COPY_DATA_FILE: opening file data.pkg
(PID.TID 0000.0001) // =======================================================
(PID.TID 0000.0001) // Parameter file "data.pkg"
(PID.TID 0000.0001) // =======================================================
(PID.TID 0000.0001) ># Packages
(PID.TID 0000.0001) > &PACKAGES
(PID.TID 0000.0001) > usePTRACERS=.TRUE.
(PID.TID 0000.0001) > useGCHEM=.TRUE.,
(PID.TID 0000.0001) > useKPP=.FALSE.,
(PID.TID 0000.0001) > useMNC=.TRUE.,
(PID.TID 0000.0001) > useEXF=.TRUE,
(PID.TID 0000.0001) > useDIAGNOSTICS=.TRUE,
(PID.TID 0000.0001) > /
(PID.TID 0000.0001) 
(PID.TID 0000.0001)  PACKAGES_BOOT: finished reading data.pkg
(PID.TID 0000.0001)  MNC_READPARMS: opening file 'data.mnc'
(PID.TID 0000.0001)  OPEN_COPY_DATA_FILE: opening file data.mnc
(PID.TID 0000.0001) // =======================================================
(PID.TID 0000.0001) // Parameter file "data.mnc"
(PID.TID 0000.0001) // =======================================================
(PID.TID 0000.0001) ># Example "data.mnc" file
(PID.TID 0000.0001) ># Lines beginning "#" are comments
(PID.TID 0000.0001) > &MNC_01
(PID.TID 0000.0001) ># mnc_echo_gvtypes=.FALSE.,
(PID.TID 0000.0001) ># mnc_use_indir=.FALSE.,
(PID.TID 0000.0001) > mnc_use_outdir=F,
(PID.TID 0000.0001) > mnc_outdir_str='mnc_',
(PID.TID 0000.0001) > mnc_outdir_date=T,
(PID.TID 0000.0001) > monitor_mnc=.FALSE.,
(PID.TID 0000.0001) > snapshot_mnc=.TRUE.,
(PID.TID 0000.0001) > timeave_mnc=.TRUE.,
(PID.TID 0000.0001) > pickup_read_mnc=.FALSE.,
(PID.TID 0000.0001) > pickup_write_mnc=.FALSE.,
(PID.TID 0000.0001) > /
(PID.TID 0000.0001) ># Note: Some systems use & as the
(PID.TID 0000.0001) ># namelist terminator. Other systems
(PID.TID 0000.0001) ># use a / character.
(PID.TID 0000.0001) 
(PID.TID 0000.0001)  MNC_READPARMS: finished reading data.mnc
(PID.TID 0000.0001) CAL_READPARMS: opening data.cal
(PID.TID 0000.0001)  OPEN_COPY_DATA_FILE: opening file data.cal
(PID.TID 0000.0001) // =======================================================
(PID.TID 0000.0001) // Parameter file "data.cal"
(PID.TID 0000.0001) // =======================================================
(PID.TID 0000.0001) >#
(PID.TID 0000.0001) ># *******************
(PID.TID 0000.0001) ># Calendar Parameters
(PID.TID 0000.0001) ># *******************
(PID.TID 0000.0001) > &CAL_NML
(PID.TID 0000.0001) > TheCalendar='model',
(PID.TID 0000.0001) > startDate_1=19920101,
(PID.TID 0000.0001) > startDate_2=000000,
(PID.TID 0000.0001) > calendarDumps = .TRUE.
(PID.TID 0000.0001) > /
(PID.TID 0000.0001) 
(PID.TID 0000.0001) CAL_READPARMS: finished reading data.cal
(PID.TID 0000.0001) EXF_READPARMS: opening data.exf
(PID.TID 0000.0001)  OPEN_COPY_DATA_FILE: opening file data.exf
(PID.TID 0000.0001) // =======================================================
(PID.TID 0000.0001) // Parameter file "data.exf"
(PID.TID 0000.0001) // =======================================================
(PID.TID 0000.0001) ># *********************
(PID.TID 0000.0001) ># External Forcing Data
(PID.TID 0000.0001) ># *********************
(PID.TID 0000.0001) >#
(PID.TID 0000.0001) > &EXF_NML_01
(PID.TID 0000.0001) > exf_albedo        = 0.15,
(PID.TID 0000.0001) > exf_iprec         = 32,
(PID.TID 0000.0001) > exf_yftype        = 'RL',
(PID.TID 0000.0001) > useExfYearlyFields= .TRUE.,
(PID.TID 0000.0001) > twoDigitYear      = .TRUE.,
(PID.TID 0000.0001) > useExfCheckRange  = .FALSE.,
(PID.TID 0000.0001) > /
(PID.TID 0000.0001) >#
(PID.TID 0000.0001) > &EXF_NML_02
(PID.TID 0000.0001) > /
(PID.TID 0000.0001) >#
(PID.TID 0000.0001) > &EXF_NML_03
(PID.TID 0000.0001) > /
(PID.TID 0000.0001) >#
(PID.TID 0000.0001) > &EXF_NML_04
(PID.TID 0000.0001) > /
(PID.TID 0000.0001) >#
(PID.TID 0000.0001) > &EXF_NML_OBCS
(PID.TID 0000.0001) > /
(PID.TID 0000.0001) 
(PID.TID 0000.0001) EXF_READPARMS: reading EXF_NML_01
(PID.TID 0000.0001) EXF_READPARMS: reading EXF_NML_02
(PID.TID 0000.0001) EXF_READPARMS: reading EXF_NML_03
(PID.TID 0000.0001) EXF_READPARMS: finished reading data.exf
(PID.TID 0000.0001)  PTRACERS_READPARMS: opening data.ptracers
(PID.TID 0000.0001)  OPEN_COPY_DATA_FILE: opening file data.ptracers
(PID.TID 0000.0001) // =======================================================
(PID.TID 0000.0001) // Parameter file "data.ptracers"
(PID.TID 0000.0001) // =======================================================
(PID.TID 0000.0001) > &PTRACERS_PARM01
(PID.TID 0000.0001) > PTRACERS_numInUse=175,
(PID.TID 0000.0001) > PTRACERS_Iter0= 0,
(PID.TID 0000.0001) > PTRACERS_advScheme= 175*33,
(PID.TID 0000.0001) > PTRACERS_diffKh=    175*0.E3,
(PID.TID 0000.0001) > PTRACERS_diffKr=    175*1.E-5,
(PID.TID 0000.0001) > PTRACERS_useGMRedi= 175*.FALSE. ,
(PID.TID 0000.0001) >#
(PID.TID 0000.0001) >       PTRACERS_names(1)= 'DIC',
(PID.TID 0000.0001) >       PTRACERS_names(2)= 'NH4',
(PID.TID 0000.0001) >       PTRACERS_names(3)= 'NO2',
(PID.TID 0000.0001) >       PTRACERS_names(4)= 'NO3',
(PID.TID 0000.0001) >       PTRACERS_names(5)= 'PO4',
(PID.TID 0000.0001) >       PTRACERS_names(6)= 'SiO2',
(PID.TID 0000.0001) >       PTRACERS_names(7)= 'FeT',
(PID.TID 0000.0001) >       PTRACERS_names(8)= 'DOC',
(PID.TID 0000.0001) >       PTRACERS_names(9)= 'DON',
(PID.TID 0000.0001) >       PTRACERS_names(10)= 'DOP',
(PID.TID 0000.0001) >       PTRACERS_names(11)= 'DOFe',
(PID.TID 0000.0001) >       PTRACERS_names(12)= 'POC',
(PID.TID 0000.0001) >       PTRACERS_names(13)= 'PON',
(PID.TID 0000.0001) >       PTRACERS_names(14)= 'POP',
(PID.TID 0000.0001) >       PTRACERS_names(15)= 'POSi',
(PID.TID 0000.0001) >       PTRACERS_names(16)= 'POFe',
(PID.TID 0000.0001) >       PTRACERS_names(17)= 'PIC',
(PID.TID 0000.0001) >       PTRACERS_names(18)= 'c01',
(PID.TID 0000.0001) >       PTRACERS_names(19)= 'c02',
(PID.TID 0000.0001) >       PTRACERS_names(20)= 'c03',
(PID.TID 0000.0001) >       PTRACERS_names(21)= 'c04',
(PID.TID 0000.0001) >       PTRACERS_names(22)= 'c05',
(PID.TID 0000.0001) >       PTRACERS_names(23)= 'c06',
(PID.TID 0000.0001) >       PTRACERS_names(24)= 'c07',
(PID.TID 0000.0001) >       PTRACERS_names(25)= 'c08',
(PID.TID 0000.0001) >       PTRACERS_names(26)= 'c09',
(PID.TID 0000.0001) >       PTRACERS_names(27)= 'c10',
(PID.TID 0000.0001) >       PTRACERS_names(28)= 'c11',
(PID.TID 0000.0001) >       PTRACERS_names(29)= 'c12',
(PID.TID 0000.0001) >       PTRACERS_names(30)= 'c13',
(PID.TID 0000.0001) >       PTRACERS_names(31)= 'c14',
(PID.TID 0000.0001) >       PTRACERS_names(32)= 'c15',
(PID.TID 0000.0001) >       PTRACERS_names(33)= 'c16',
(PID.TID 0000.0001) >       PTRACERS_names(34)= 'c17',
(PID.TID 0000.0001) >       PTRACERS_names(35)= 'c18',
(PID.TID 0000.0001) >       PTRACERS_names(36)= 'c19',
(PID.TID 0000.0001) >       PTRACERS_names(37)= 'c20',
(PID.TID 0000.0001) >       PTRACERS_names(38)= 'c21',
(PID.TID 0000.0001) >       PTRACERS_names(39)= 'c22',
(PID.TID 0000.0001) >       PTRACERS_names(40)= 'c23',
(PID.TID 0000.0001) >       PTRACERS_names(41)= 'c24',
(PID.TID 0000.0001) >       PTRACERS_names(42)= 'c25',
(PID.TID 0000.0001) >       PTRACERS_names(43)= 'c26',
(PID.TID 0000.0001) >       PTRACERS_names(44)= 'c27',
(PID.TID 0000.0001) >       PTRACERS_names(45)= 'c28',
(PID.TID 0000.0001) >       PTRACERS_names(46)= 'c29',
(PID.TID 0000.0001) >       PTRACERS_names(47)= 'c30',
(PID.TID 0000.0001) >       PTRACERS_names(48)= 'c31',
(PID.TID 0000.0001) >       PTRACERS_names(49)= 'c32',
(PID.TID 0000.0001) >       PTRACERS_names(50)= 'c33',
(PID.TID 0000.0001) >       PTRACERS_names(51)= 'c34',
(PID.TID 0000.0001) >       PTRACERS_names(52)= 'c35',
(PID.TID 0000.0001) >       PTRACERS_names(53)= 'c36',
(PID.TID 0000.0001) >       PTRACERS_names(54)= 'c37',
(PID.TID 0000.0001) >       PTRACERS_names(55)= 'c38',
(PID.TID 0000.0001) >       PTRACERS_names(56)= 'c39',
(PID.TID 0000.0001) >       PTRACERS_names(57)= 'c40',
(PID.TID 0000.0001) >       PTRACERS_names(58)= 'c41',
(PID.TID 0000.0001) >       PTRACERS_names(59)= 'c42',
(PID.TID 0000.0001) >       PTRACERS_names(60)= 'c43',
(PID.TID 0000.0001) >       PTRACERS_names(61)= 'c44',
(PID.TID 0000.0001) >       PTRACERS_names(62)= 'c45',
(PID.TID 0000.0001) >       PTRACERS_names(63)= 'c46',
(PID.TID 0000.0001) >       PTRACERS_names(64)= 'c47',
(PID.TID 0000.0001) >       PTRACERS_names(65)= 'c48',
(PID.TID 0000.0001) >       PTRACERS_names(66)= 'c49',
(PID.TID 0000.0001) >       PTRACERS_names(67)= 'c50',
(PID.TID 0000.0001) >       PTRACERS_names(68)= 'c51',
(PID.TID 0000.0001) >       PTRACERS_names(69)= 'c52',
(PID.TID 0000.0001) >       PTRACERS_names(70)= 'c53',
(PID.TID 0000.0001) >       PTRACERS_names(71)= 'c54',
(PID.TID 0000.0001) >       PTRACERS_names(72)= 'c55',
(PID.TID 0000.0001) >       PTRACERS_names(73)= 'c56',
(PID.TID 0000.0001) >       PTRACERS_names(74)= 'c57',
(PID.TID 0000.0001) >       PTRACERS_names(75)= 'c58',
(PID.TID 0000.0001) >       PTRACERS_names(76)= 'c59',
(PID.TID 0000.0001) >       PTRACERS_names(77)= 'c60',
(PID.TID 0000.0001) >       PTRACERS_names(78)= 'c61',
(PID.TID 0000.0001) >       PTRACERS_names(79)= 'c62',
(PID.TID 0000.0001) >       PTRACERS_names(80)= 'c63',
(PID.TID 0000.0001) >       PTRACERS_names(81)= 'c64',
(PID.TID 0000.0001) >       PTRACERS_names(82)= 'c65',
(PID.TID 0000.0001) >       PTRACERS_names(83)= 'c66',
(PID.TID 0000.0001) >       PTRACERS_names(84)= 'c67',
(PID.TID 0000.0001) >       PTRACERS_names(85)= 'c68',
(PID.TID 0000.0001) >       PTRACERS_names(86)= 'c69',
(PID.TID 0000.0001) >       PTRACERS_names(87)= 'c70',
(PID.TID 0000.0001) >       PTRACERS_names(88)= 'c71',
(PID.TID 0000.0001) >       PTRACERS_names(89)= 'c72',
(PID.TID 0000.0001) >       PTRACERS_names(90)= 'c73',
(PID.TID 0000.0001) >       PTRACERS_names(91)= 'c74',
(PID.TID 0000.0001) >       PTRACERS_names(92)= 'c75',
(PID.TID 0000.0001) >       PTRACERS_names(93)= 'c76',
(PID.TID 0000.0001) >       PTRACERS_names(94)= 'c77',
(PID.TID 0000.0001) >       PTRACERS_names(95)= 'c78',
(PID.TID 0000.0001) > PTRACERS_names(96)= 'zc1',
(PID.TID 0000.0001) > PTRACERS_names(97)= 'zc2',
(PID.TID 0000.0001) >       PTRACERS_names(98)= 'Chl01',
(PID.TID 0000.0001) >       PTRACERS_names(99)= 'Chl02',
(PID.TID 0000.0001) >       PTRACERS_names(100)= 'Chl03',
(PID.TID 0000.0001) >       PTRACERS_names(101)= 'Chl04',
(PID.TID 0000.0001) >       PTRACERS_names(102)= 'Chl05',
(PID.TID 0000.0001) >       PTRACERS_names(103)= 'Chl06',
(PID.TID 0000.0001) >       PTRACERS_names(104)= 'Chl07',
(PID.TID 0000.0001) >       PTRACERS_names(105)= 'Chl08',
(PID.TID 0000.0001) >       PTRACERS_names(106)= 'Chl09',
(PID.TID 0000.0001) >       PTRACERS_names(107)= 'Chl10',
(PID.TID 0000.0001) >       PTRACERS_names(108)= 'Chl11',
(PID.TID 0000.0001) >       PTRACERS_names(109)= 'Chl12',
(PID.TID 0000.0001) >       PTRACERS_names(110)= 'Chl13',
(PID.TID 0000.0001) >       PTRACERS_names(111)= 'Chl14',
(PID.TID 0000.0001) >       PTRACERS_names(112)= 'Chl15',
(PID.TID 0000.0001) >       PTRACERS_names(113)= 'Chl16',
(PID.TID 0000.0001) >       PTRACERS_names(114)= 'Chl17',
(PID.TID 0000.0001) >       PTRACERS_names(115)= 'Chl18',
(PID.TID 0000.0001) >       PTRACERS_names(116)= 'Chl19',
(PID.TID 0000.0001) >       PTRACERS_names(117)= 'Chl20',
(PID.TID 0000.0001) >       PTRACERS_names(118)= 'Chl21',
(PID.TID 0000.0001) >       PTRACERS_names(119)= 'Chl22',
(PID.TID 0000.0001) >       PTRACERS_names(120)= 'Chl23',
(PID.TID 0000.0001) >       PTRACERS_names(121)= 'Chl24',
(PID.TID 0000.0001) >       PTRACERS_names(122)= 'Chl25',
(PID.TID 0000.0001) >       PTRACERS_names(123)= 'Chl26',
(PID.TID 0000.0001) >       PTRACERS_names(124)= 'Chl27',
(PID.TID 0000.0001) >       PTRACERS_names(125)= 'Chl28',
(PID.TID 0000.0001) >       PTRACERS_names(126)= 'Chl29',
(PID.TID 0000.0001) >       PTRACERS_names(127)= 'Chl30',
(PID.TID 0000.0001) >       PTRACERS_names(128)= 'Chl31',
(PID.TID 0000.0001) >       PTRACERS_names(129)= 'Chl32',
(PID.TID 0000.0001) >       PTRACERS_names(130)= 'Chl33',
(PID.TID 0000.0001) >       PTRACERS_names(131)= 'Chl34',
(PID.TID 0000.0001) >       PTRACERS_names(132)= 'Chl35',
(PID.TID 0000.0001) >       PTRACERS_names(133)= 'Chl36',
(PID.TID 0000.0001) >       PTRACERS_names(134)= 'Chl37',
(PID.TID 0000.0001) >       PTRACERS_names(135)= 'Chl38',
(PID.TID 0000.0001) >       PTRACERS_names(136)= 'Chl39',
(PID.TID 0000.0001) >       PTRACERS_names(137)= 'Chl40',
(PID.TID 0000.0001) >       PTRACERS_names(138)= 'Chl41',
(PID.TID 0000.0001) >       PTRACERS_names(139)= 'Chl42',
(PID.TID 0000.0001) >       PTRACERS_names(140)= 'Chl43',
(PID.TID 0000.0001) >       PTRACERS_names(141)= 'Chl44',
(PID.TID 0000.0001) >       PTRACERS_names(142)= 'Chl45',
(PID.TID 0000.0001) >       PTRACERS_names(143)= 'Chl46',
(PID.TID 0000.0001) >       PTRACERS_names(144)= 'Chl47',
(PID.TID 0000.0001) >       PTRACERS_names(145)= 'Chl48',
(PID.TID 0000.0001) >       PTRACERS_names(146)= 'Chl49',
(PID.TID 0000.0001) >       PTRACERS_names(147)= 'Chl50',
(PID.TID 0000.0001) >       PTRACERS_names(148)= 'Chl51',
(PID.TID 0000.0001) >       PTRACERS_names(149)= 'Chl52',
(PID.TID 0000.0001) >       PTRACERS_names(150)= 'Chl53',
(PID.TID 0000.0001) >       PTRACERS_names(151)= 'Chl54',
(PID.TID 0000.0001) >       PTRACERS_names(152)= 'Chl55',
(PID.TID 0000.0001) >       PTRACERS_names(153)= 'Chl56',
(PID.TID 0000.0001) >       PTRACERS_names(154)= 'Chl57',
(PID.TID 0000.0001) >       PTRACERS_names(155)= 'Chl58',
(PID.TID 0000.0001) >       PTRACERS_names(156)= 'Chl59',
(PID.TID 0000.0001) >       PTRACERS_names(157)= 'Chl60',
(PID.TID 0000.0001) >       PTRACERS_names(158)= 'Chl61',
(PID.TID 0000.0001) >       PTRACERS_names(159)= 'Chl62',
(PID.TID 0000.0001) >       PTRACERS_names(160)= 'Chl63',
(PID.TID 0000.0001) >       PTRACERS_names(161)= 'Chl64',
(PID.TID 0000.0001) >       PTRACERS_names(162)= 'Chl65',
(PID.TID 0000.0001) >       PTRACERS_names(163)= 'Chl66',
(PID.TID 0000.0001) >       PTRACERS_names(164)= 'Chl67',
(PID.TID 0000.0001) >       PTRACERS_names(165)= 'Chl68',
(PID.TID 0000.0001) >       PTRACERS_names(166)= 'Chl69',
(PID.TID 0000.0001) >       PTRACERS_names(167)= 'Chl70',
(PID.TID 0000.0001) >       PTRACERS_names(168)= 'Chl71',
(PID.TID 0000.0001) >       PTRACERS_names(169)= 'Chl72',
(PID.TID 0000.0001) >       PTRACERS_names(170)= 'Chl73',
(PID.TID 0000.0001) >       PTRACERS_names(171)= 'Chl74',
(PID.TID 0000.0001) >       PTRACERS_names(172)= 'Chl75',
(PID.TID 0000.0001) >       PTRACERS_names(173)= 'Chl76',
(PID.TID 0000.0001) >       PTRACERS_names(174)= 'Chl77',
(PID.TID 0000.0001) >       PTRACERS_names(175)= 'Chl78',
(PID.TID 0000.0001) >#
(PID.TID 0000.0001) > PTRACERS_units(1)='mmol C/m^3'
(PID.TID 0000.0001) > PTRACERS_units(2)='mmol N/m^3'
(PID.TID 0000.0001) > PTRACERS_units(3)='mmol N/m^3'
(PID.TID 0000.0001) > PTRACERS_units(4)='mmol N/m^3'
(PID.TID 0000.0001) > PTRACERS_units(5)='mmol P/m^3'
(PID.TID 0000.0001) > PTRACERS_units(6)='mmol Si/m^3'
(PID.TID 0000.0001) > PTRACERS_units(7)='mmol Fe/m^3'
(PID.TID 0000.0001) > PTRACERS_units(8)='mmol C/m^3'
(PID.TID 0000.0001) > PTRACERS_units(9)='mmol N/m^3'
(PID.TID 0000.0001) > PTRACERS_units(10)='mmol P/m^3'
(PID.TID 0000.0001) > PTRACERS_units(11)='mmol Fe/m^3'
(PID.TID 0000.0001) > PTRACERS_units(12)='mmol C/m^3'
(PID.TID 0000.0001) > PTRACERS_units(13)='mmol N/m^3'
(PID.TID 0000.0001) > PTRACERS_units(14)='mmol P/m^3'
(PID.TID 0000.0001) > PTRACERS_units(15)='mmol Si/m^3'
(PID.TID 0000.0001) > PTRACERS_units(16)='mmol Fe/m^3'
(PID.TID 0000.0001) > PTRACERS_units(17)='mmol C/m^3'
(PID.TID 0000.0001) > PTRACERS_units(18:97)=80*'mmol C/m^3'
(PID.TID 0000.0001) > PTRACERS_units(98:175)=78*'mg Chl a/m^3'
(PID.TID 0000.0001) >#
(PID.TID 0000.0001) > PTRACERS_ref(1:35,   1)= 35*2e3,
(PID.TID 0000.0001) > PTRACERS_initialFile(2)='input/loc1_NH4_run83_janprof.bin',
(PID.TID 0000.0001) > PTRACERS_initialFile(3)='input/loc1_NO2_run83_janprof.bin',
(PID.TID 0000.0001) > PTRACERS_initialFile(4)='input/loc1_nitr_janprof.bin',
(PID.TID 0000.0001) > PTRACERS_initialFile(5)='input/loc1_phos_janprof.bin',
(PID.TID 0000.0001) > PTRACERS_initialFile(6)='input/loc1_sil_janprof.bin',
(PID.TID 0000.0001) > PTRACERS_initialFile(7)='input/fet_uniform.bin',
(PID.TID 0000.0001) > PTRACERS_ref(1:35,   8)= 35*0e0,
(PID.TID 0000.0001) > PTRACERS_initialFile(9)='input/loc1_DON_run83_janprof.bin',
(PID.TID 0000.0001) > PTRACERS_initialFile(10)='input/loc1_DOP_run83_janprof.bin',
(PID.TID 0000.0001) > PTRACERS_initialFile(11)='input/loc1_DOFe_run83_janprof.bin',
(PID.TID 0000.0001) > PTRACERS_ref(1:35,   12)= 35*0e0,
(PID.TID 0000.0001) > PTRACERS_initialFile(13)='input/loc1_PON_run83_janprof.bin',
(PID.TID 0000.0001) > PTRACERS_initialFile(14)='input/loc1_POP_run83_janprof.bin',
(PID.TID 0000.0001) > PTRACERS_initialFile(15)='input/loc1_POSi_run83_janprof.bin',
(PID.TID 0000.0001) > PTRACERS_initialFile(16)='input/loc1_POFe_run83_janprof.bin',
(PID.TID 0000.0001) > PTRACERS_ref(1:35,   17)= 35*0e0,
(PID.TID 0000.0001) > PTRACERS_initialFile(18:95)=78*'input/loc1_biomass_run83_janprof.bin',
(PID.TID 0000.0001) > PTRACERS_initialFile(96)='input/loc1_ZOOP_run83_janprof.bin',
(PID.TID 0000.0001) > PTRACERS_initialFile(97)='input/loc1_ZOOP_run83_janprof.bin',
(PID.TID 0000.0001) ># rest zero
(PID.TID 0000.0001) > /
(PID.TID 0000.0001) 
(PID.TID 0000.0001)  PTRACERS_READPARMS: finished reading data.ptracers
(PID.TID 0000.0001)  GCHEM_READPARMS: opening data.gchem
(PID.TID 0000.0001)  OPEN_COPY_DATA_FILE: opening file data.gchem
(PID.TID 0000.0001) // =======================================================
(PID.TID 0000.0001) // Parameter file "data.gchem"
(PID.TID 0000.0001) // =======================================================
(PID.TID 0000.0001) > &GCHEM_PARM01
(PID.TID 0000.0001) >  useDARWIN=.TRUE.,
(PID.TID 0000.0001) >  nsubtime=1,
(PID.TID 0000.0001) > /
(PID.TID 0000.0001) 
(PID.TID 0000.0001)  GCHEM_READPARMS: finished reading data.gchem
(PID.TID 0000.0001)  DARWIN_READPARMS: opening data.darwin
(PID.TID 0000.0001)  OPEN_COPY_DATA_FILE: opening file data.darwin
(PID.TID 0000.0001) // =======================================================
(PID.TID 0000.0001) // Parameter file "data.darwin"
(PID.TID 0000.0001) // =======================================================
(PID.TID 0000.0001) > &DARWIN_FORCING_PARAMS
(PID.TID 0000.0001) > ironFile='input/loc1_FeFlux_monsurf.bin',
(PID.TID 0000.0001) > PARFile='input/loc1_PAR_monsurf.bin',
(PID.TID 0000.0001) > ironPeriod= -12.,
(PID.TID 0000.0001) > PARPeriod= -12.,
(PID.TID 0000.0001) > darwin_inscal_iron= 1000.,
(PID.TID 0000.0001) > darwin_inscal_PAR= 11.574074074074074,
(PID.TID 0000.0001) > /
(PID.TID 0000.0001) > &DARWIN_PARAMS
(PID.TID 0000.0001) > darwin_seed= 11231,
(PID.TID 0000.0001) > darwin_chlInitBalanced=.TRUE.,
(PID.TID 0000.0001) > darwin_read_phos=.TRUE.,
(PID.TID 0000.0001) > /
(PID.TID 0000.0001) > &DARWIN_TRAIT_PARAMS
(PID.TID 0000.0001) > /
(PID.TID 0000.0001) > &DARWIN_ALLOMETRIC_PARAMS
(PID.TID 0000.0001) > /
(PID.TID 0000.0001) > &DARWIN_TRAITS
(PID.TID 0000.0001) > /
(PID.TID 0000.0001) 
(PID.TID 0000.0001) QQ random port_rand            11231   0.4077530000000000
(PID.TID 0000.0001)  ===================================
(PID.TID 0000.0001)  DIAGNOSTICS_READPARMS: opening data.diagnostics
(PID.TID 0000.0001)  OPEN_COPY_DATA_FILE: opening file data.diagnostics
(PID.TID 0000.0001) // =======================================================
(PID.TID 0000.0001) // Parameter file "data.diagnostics"
(PID.TID 0000.0001) // =======================================================
(PID.TID 0000.0001) > &diagnostics_list
(PID.TID 0000.0001) > filename(1)= 'darwin',
(PID.TID 0000.0001) > frequency(1)= 3600.,
(PID.TID 0000.0001) > fields(1,1)= 'TRAC01  ',
(PID.TID 0000.0001) > fields(2,1)= 'TRAC02  ',
(PID.TID 0000.0001) > fields(3,1)= 'TRAC03  ',
(PID.TID 0000.0001) > fields(4,1)= 'TRAC04  ',
(PID.TID 0000.0001) > fields(5,1)= 'TRAC05  ',
(PID.TID 0000.0001) > fields(6,1)= 'TRAC06  ',
(PID.TID 0000.0001) > fields(7,1)= 'TRAC07  ',
(PID.TID 0000.0001) > fields(8,1)= 'TRAC08  ',
(PID.TID 0000.0001) > fields(9,1)= 'TRAC09  ',
(PID.TID 0000.0001) > fields(10,1)= 'TRAC10  ',
(PID.TID 0000.0001) > fields(11,1)= 'TRAC11  ',
(PID.TID 0000.0001) > fields(12,1)= 'TRAC12  ',
(PID.TID 0000.0001) > fields(13,1)= 'TRAC13  ',
(PID.TID 0000.0001) > fields(14,1)= 'TRAC14  ',
(PID.TID 0000.0001) > fields(15,1)= 'TRAC15  ',
(PID.TID 0000.0001) > fields(16,1)= 'TRAC16  ',
(PID.TID 0000.0001) > fields(17,1)= 'TRAC17  ',
(PID.TID 0000.0001) > fields(18,1)= 'TRAC18  ',
(PID.TID 0000.0001) > fields(19,1)= 'TRAC19  ',
(PID.TID 0000.0001) > fields(20,1)= 'TRAC20  ',
(PID.TID 0000.0001) > fields(21,1)= 'TRAC21  ',
(PID.TID 0000.0001) > fields(22,1)= 'TRAC22  ',
(PID.TID 0000.0001) > fields(23,1)= 'TRAC23  ',
(PID.TID 0000.0001) > fields(24,1)= 'TRAC24  ',
(PID.TID 0000.0001) > fields(25,1)= 'TRAC25  ',
(PID.TID 0000.0001) > fields(26,1)= 'TRAC26  ',
(PID.TID 0000.0001) > fields(27,1)= 'TRAC27  ',
(PID.TID 0000.0001) > fields(28,1)= 'TRAC28  ',
(PID.TID 0000.0001) > fields(29,1)= 'TRAC29  ',
(PID.TID 0000.0001) > fields(30,1)= 'TRAC30  ',
(PID.TID 0000.0001) > fields(31,1)= 'TRAC31  ',
(PID.TID 0000.0001) > fields(32,1)= 'TRAC32  ',
(PID.TID 0000.0001) > fields(33,1)= 'TRAC33  ',
(PID.TID 0000.0001) > fields(34,1)= 'TRAC34  ',
(PID.TID 0000.0001) > fields(35,1)= 'TRAC35  ',
(PID.TID 0000.0001) > fields(36,1)= 'TRAC36  ',
(PID.TID 0000.0001) > fields(37,1)= 'TRAC37  ',
(PID.TID 0000.0001) > fields(38,1)= 'TRAC38  ',
(PID.TID 0000.0001) > fields(39,1)= 'TRAC39  ',
(PID.TID 0000.0001) > fields(40,1)= 'TRAC40  ',
(PID.TID 0000.0001) > fields(41,1)= 'TRAC41  ',
(PID.TID 0000.0001) > fields(42,1)= 'TRAC42  ',
(PID.TID 0000.0001) > fields(43,1)= 'TRAC43  ',
(PID.TID 0000.0001) > fields(44,1)= 'TRAC44  ',
(PID.TID 0000.0001) > fields(45,1)= 'TRAC45  ',
(PID.TID 0000.0001) > fields(46,1)= 'TRAC46  ',
(PID.TID 0000.0001) > fields(47,1)= 'TRAC47  ',
(PID.TID 0000.0001) > fields(48,1)= 'TRAC48  ',
(PID.TID 0000.0001) > fields(49,1)= 'TRAC49  ',
(PID.TID 0000.0001) > fields(50,1)= 'TRAC50  ',
(PID.TID 0000.0001) > fields(51,1)= 'TRAC51  ',
(PID.TID 0000.0001) > fields(52,1)= 'TRAC52  ',
(PID.TID 0000.0001) > fields(53,1)= 'TRAC53  ',
(PID.TID 0000.0001) > fields(54,1)= 'TRAC54  ',
(PID.TID 0000.0001) > fields(55,1)= 'TRAC55  ',
(PID.TID 0000.0001) > fields(56,1)= 'TRAC56  ',
(PID.TID 0000.0001) > fields(57,1)= 'TRAC57  ',
(PID.TID 0000.0001) > fields(58,1)= 'TRAC58  ',
(PID.TID 0000.0001) > fields(59,1)= 'TRAC59  ',
(PID.TID 0000.0001) > fields(60,1)= 'TRAC60  ',
(PID.TID 0000.0001) > fields(61,1)= 'TRAC61  ',
(PID.TID 0000.0001) > fields(62,1)= 'TRAC62  ',
(PID.TID 0000.0001) > fields(63,1)= 'TRAC63  ',
(PID.TID 0000.0001) > fields(64,1)= 'TRAC64  ',
(PID.TID 0000.0001) > fields(65,1)= 'TRAC65  ',
(PID.TID 0000.0001) > fields(66,1)= 'TRAC66  ',
(PID.TID 0000.0001) > fields(67,1)= 'TRAC67  ',
(PID.TID 0000.0001) > fields(68,1)= 'TRAC68  ',
(PID.TID 0000.0001) > fields(69,1)= 'TRAC69  ',
(PID.TID 0000.0001) > fields(70,1)= 'TRAC70  ',
(PID.TID 0000.0001) > fields(71,1)= 'TRAC71  ',
(PID.TID 0000.0001) > fields(72,1)= 'TRAC72  ',
(PID.TID 0000.0001) > fields(73,1)= 'TRAC73  ',
(PID.TID 0000.0001) > fields(74,1)= 'TRAC74  ',
(PID.TID 0000.0001) > fields(75,1)= 'TRAC75  ',
(PID.TID 0000.0001) > fields(76,1)= 'TRAC76  ',
(PID.TID 0000.0001) > fields(77,1)= 'TRAC77  ',
(PID.TID 0000.0001) > fields(78,1)= 'TRAC78  ',
(PID.TID 0000.0001) > fields(79,1)= 'TRAC79  ',
(PID.TID 0000.0001) > fields(80,1)= 'TRAC80  ',
(PID.TID 0000.0001) > fields(81,1)= 'TRAC81  ',
(PID.TID 0000.0001) > fields(82,1)= 'TRAC82  ',
(PID.TID 0000.0001) > fields(83,1)= 'TRAC83  ',
(PID.TID 0000.0001) > fields(84,1)= 'TRAC84  ',
(PID.TID 0000.0001) > fields(85,1)= 'TRAC85  ',
(PID.TID 0000.0001) > fields(86,1)= 'TRAC86  ',
(PID.TID 0000.0001) > fields(87,1)= 'TRAC87  ',
(PID.TID 0000.0001) > fields(88,1)= 'TRAC88  ',
(PID.TID 0000.0001) > fields(89,1)= 'TRAC89  ',
(PID.TID 0000.0001) > fields(90,1)= 'TRAC90  ',
(PID.TID 0000.0001) > fields(91,1)= 'TRAC91  ',
(PID.TID 0000.0001) > fields(92,1)= 'TRAC92  ',
(PID.TID 0000.0001) > fields(93,1)= 'TRAC93  ',
(PID.TID 0000.0001) > fields(94,1)= 'TRAC94  ',
(PID.TID 0000.0001) > fields(95,1)= 'TRAC95  ',
(PID.TID 0000.0001) > fields(96,1)= 'TRAC96  ',
(PID.TID 0000.0001) > fields(97,1)= 'TRAC97  ',
(PID.TID 0000.0001) > fields(98,1)= 'TRAC98  ',
(PID.TID 0000.0001) > fields(99,1)= 'TRAC99  ',
(PID.TID 0000.0001) > fields(100,1)= 'TRAC0a  ',
(PID.TID 0000.0001) > fields(101,1)= 'TRAC0b  ',
(PID.TID 0000.0001) > fields(102,1)= 'TRAC0c  ',
(PID.TID 0000.0001) > fields(103,1)= 'TRAC0d  ',
(PID.TID 0000.0001) > fields(104,1)= 'TRAC0e  ',
(PID.TID 0000.0001) > fields(105,1)= 'TRAC0f  ',
(PID.TID 0000.0001) > fields(106,1)= 'TRAC0g  ',
(PID.TID 0000.0001) > fields(107,1)= 'TRAC0h  ',
(PID.TID 0000.0001) > fields(108,1)= 'TRAC0i  ',
(PID.TID 0000.0001) > fields(109,1)= 'TRAC0j  ',
(PID.TID 0000.0001) > fields(110,1)= 'TRAC0k  ',
(PID.TID 0000.0001) > fields(111,1)= 'TRAC0l  ',
(PID.TID 0000.0001) > fields(112,1)= 'TRAC0m  ',
(PID.TID 0000.0001) > fields(113,1)= 'TRAC0n  ',
(PID.TID 0000.0001) > fields(114,1)= 'TRAC0o  ',
(PID.TID 0000.0001) > fields(115,1)= 'TRAC0p  ',
(PID.TID 0000.0001) > fields(116,1)= 'TRAC0q  ',
(PID.TID 0000.0001) > fields(117,1)= 'TRAC0r  ',
(PID.TID 0000.0001) > fields(118,1)= 'TRAC0s  ',
(PID.TID 0000.0001) > fields(119,1)= 'TRAC0t  ',
(PID.TID 0000.0001) > fields(120,1)= 'TRAC0u  ',
(PID.TID 0000.0001) > fields(121,1)= 'TRAC0v  ',
(PID.TID 0000.0001) > fields(122,1)= 'TRAC0w  ',
(PID.TID 0000.0001) > fields(123,1)= 'TRAC0x  ',
(PID.TID 0000.0001) > fields(124,1)= 'TRAC0y  ',
(PID.TID 0000.0001) > fields(125,1)= 'TRAC0z  ',
(PID.TID 0000.0001) > fields(126,1)= 'TRAC0A  ',
(PID.TID 0000.0001) > fields(127,1)= 'TRAC0B  ',
(PID.TID 0000.0001) > fields(128,1)= 'TRAC0C  ',
(PID.TID 0000.0001) > fields(129,1)= 'TRAC0D  ',
(PID.TID 0000.0001) > fields(130,1)= 'TRAC0E  ',
(PID.TID 0000.0001) > fields(131,1)= 'TRAC0F  ',
(PID.TID 0000.0001) > fields(132,1)= 'TRAC0G  ',
(PID.TID 0000.0001) > fields(133,1)= 'TRAC0H  ',
(PID.TID 0000.0001) > fields(134,1)= 'TRAC0I  ',
(PID.TID 0000.0001) > fields(135,1)= 'TRAC0J  ',
(PID.TID 0000.0001) > fields(136,1)= 'TRAC0K  ',
(PID.TID 0000.0001) > fields(137,1)= 'TRAC0L  ',
(PID.TID 0000.0001) > fields(138,1)= 'TRAC0M  ',
(PID.TID 0000.0001) > fields(139,1)= 'TRAC0N  ',
(PID.TID 0000.0001) > fields(140,1)= 'TRAC0O  ',
(PID.TID 0000.0001) > fields(141,1)= 'TRAC0P  ',
(PID.TID 0000.0001) > fields(142,1)= 'TRAC0Q  ',
(PID.TID 0000.0001) > fields(143,1)= 'TRAC0R  ',
(PID.TID 0000.0001) > fields(144,1)= 'TRAC0S  ',
(PID.TID 0000.0001) > fields(145,1)= 'TRAC0T  ',
(PID.TID 0000.0001) > fields(146,1)= 'TRAC0U  ',
(PID.TID 0000.0001) > fields(147,1)= 'TRAC0V  ',
(PID.TID 0000.0001) > fields(148,1)= 'TRAC0W  ',
(PID.TID 0000.0001) > fields(149,1)= 'TRAC0X  ',
(PID.TID 0000.0001) > fields(150,1)= 'TRAC0Y  ',
(PID.TID 0000.0001) > fields(151,1)= 'TRAC0Z  ',
(PID.TID 0000.0001) > fields(152,1)= 'TRAC1a  ',
(PID.TID 0000.0001) > fields(153,1)= 'TRAC1b  ',
(PID.TID 0000.0001) > fields(154,1)= 'TRAC1c  ',
(PID.TID 0000.0001) > fields(155,1)= 'TRAC1d  ',
(PID.TID 0000.0001) > fields(156,1)= 'TRAC1e  ',
(PID.TID 0000.0001) > fields(157,1)= 'TRAC1f  ',
(PID.TID 0000.0001) > fields(158,1)= 'TRAC1g  ',
(PID.TID 0000.0001) > fields(159,1)= 'TRAC1h  ',
(PID.TID 0000.0001) > fields(160,1)= 'TRAC1i  ',
(PID.TID 0000.0001) > fields(161,1)= 'TRAC1j  ',
(PID.TID 0000.0001) > fields(162,1)= 'TRAC1k  ',
(PID.TID 0000.0001) > fields(163,1)= 'TRAC1l  ',
(PID.TID 0000.0001) > fields(164,1)= 'TRAC1m  ',
(PID.TID 0000.0001) > fields(165,1)= 'TRAC1n  ',
(PID.TID 0000.0001) > fields(166,1)= 'TRAC1o  ',
(PID.TID 0000.0001) > fields(167,1)= 'TRAC1p  ',
(PID.TID 0000.0001) > fields(168,1)= 'TRAC1q  ',
(PID.TID 0000.0001) > fields(169,1)= 'TRAC1r  ',
(PID.TID 0000.0001) > fields(170,1)= 'TRAC1s  ',
(PID.TID 0000.0001) > fields(171,1)= 'TRAC1t  ',
(PID.TID 0000.0001) > fields(172,1)= 'TRAC1u  ',
(PID.TID 0000.0001) > fields(173,1)= 'TRAC1v  ',
(PID.TID 0000.0001) > fields(174,1)= 'TRAC1w  ',
(PID.TID 0000.0001) > fields(175,1)= 'TRAC1x  ',
(PID.TID 0000.0001) > fields(176,1)= 'PAR01   ',
(PID.TID 0000.0001) > fields(177,1)= 'DIC_c01 ',
(PID.TID 0000.0001) > fields(178,1)= 'DIC_c02 ',
(PID.TID 0000.0001) > fields(179,1)= 'c01_DOC ',
(PID.TID 0000.0001) > fields(180,1)= 'c02_DOC ',
(PID.TID 0000.0001) > fields(181,1)= 'c01_POC ',
(PID.TID 0000.0001) > fields(182,1)= 'c02_POC ',
(PID.TID 0000.0001) > fields(183,1)= 'PARF    ',
(PID.TID 0000.0001) > fields(184,1)= 'atten   ',
(PID.TID 0000.0001) > fields(185,1)= 'surfPAR ',
(PID.TID 0000.0001) > fields(186,1)= 'exfPAR  ',
(PID.TID 0000.0001) > fields(187,1)= 'limn01  ',
(PID.TID 0000.0001) > fields(188,1)= 'limp01  ',
(PID.TID 0000.0001) > fields(189,1)= 'limsi01 ',
(PID.TID 0000.0001) > fields(190,1)= 'limfe01 ',
(PID.TID 0000.0001) > fields(191,1)= 'limI01  ',
(PID.TID 0000.0001) > fields(192,1)= 'limT01  ',
(PID.TID 0000.0001) > fields(193,1)= 'c01_c   ',
(PID.TID 0000.0001) > fields(194,1)= 'c02_c   ',
(PID.TID 0000.0001) > fields(195,1)= 'c_c03   ',
(PID.TID 0000.0001) > fields(196,1)= 'c_c04   ',
(PID.TID 0000.0001) > fields(197,1)= 'c_DOC   ',
(PID.TID 0000.0001) > fields(198,1)= 'c_POC   ',
(PID.TID 0000.0001) > fields(199,1)= 'c_PIC   ',
(PID.TID 0000.0001) > fields(200,1)= 'n_DON   ',
(PID.TID 0000.0001) > fields(201,1)= 'n_PON   ',
(PID.TID 0000.0001) > fields(202,1)= 'p_DOP   ',
(PID.TID 0000.0001) > fields(203,1)= 'p_POP   ',
(PID.TID 0000.0001) > /
(PID.TID 0000.0001) > &diag_statis_parms
(PID.TID 0000.0001) > /
(PID.TID 0000.0001) 
(PID.TID 0000.0001) S/R DIAGNOSTICS_READPARMS, read namelist "diagnostics_list": start
(PID.TID 0000.0001) S/R DIAGNOSTICS_READPARMS, read namelist "diagnostics_list": OK
(PID.TID 0000.0001) S/R DIAGNOSTICS_READPARMS, read namelist "DIAG_STATIS_PARMS": start
(PID.TID 0000.0001) S/R DIAGNOSTICS_READPARMS, read namelist "DIAG_STATIS_PARMS": OK
(PID.TID 0000.0001)  DIAGNOSTICS_READPARMS: global parameter summary:
(PID.TID 0000.0001)  dumpAtLast = /* always write time-ave diags at the end */
(PID.TID 0000.0001)                   F
(PID.TID 0000.0001)     ;
(PID.TID 0000.0001)  diag_mnc =   /* write NetCDF output files */
(PID.TID 0000.0001)                   T
(PID.TID 0000.0001)     ;
(PID.TID 0000.0001)  useMissingValue = /* put MissingValue where mask = 0 */
(PID.TID 0000.0001)                   F
(PID.TID 0000.0001)     ;
(PID.TID 0000.0001)  diagCG_maxIters = /* max number of iters in diag_cg2d */
(PID.TID 0000.0001)                     300
(PID.TID 0000.0001)     ;
(PID.TID 0000.0001)  diagCG_resTarget = /* residual target for diag_cg2d */
(PID.TID 0000.0001)                 1.000000000000000E-07
(PID.TID 0000.0001)     ;
(PID.TID 0000.0001) -----------------------------------------------------
(PID.TID 0000.0001)  DIAGNOSTICS_READPARMS: active diagnostics summary:
(PID.TID 0000.0001) -----------------------------------------------------
(PID.TID 0000.0001) Creating Output Stream: darwin
(PID.TID 0000.0001) Output Frequency:       3600.000000 ; Phase:           0.000000
(PID.TID 0000.0001)  Averaging Freq.:       3600.000000 , Phase:           0.000000 , Cycle:   1
(PID.TID 0000.0001)  missing value:  1.234567000000E+05 ; for integers:   123456789
(PID.TID 0000.0001)  Levels:    will be set later
(PID.TID 0000.0001)  Fields:    TRAC01   TRAC02   TRAC03   TRAC04   TRAC05   TRAC06   TRAC07   TRAC08   TRAC09   TRAC10
(PID.TID 0000.0001)  Fields:    TRAC11   TRAC12   TRAC13   TRAC14   TRAC15   TRAC16   TRAC17   TRAC18   TRAC19   TRAC20
(PID.TID 0000.0001)  Fields:    TRAC21   TRAC22   TRAC23   TRAC24   TRAC25   TRAC26   TRAC27   TRAC28   TRAC29   TRAC30
(PID.TID 0000.0001)  Fields:    TRAC31   TRAC32   TRAC33   TRAC34   TRAC35   TRAC36   TRAC37   TRAC38   TRAC39   TRAC40
(PID.TID 0000.0001)  Fields:    TRAC41   TRAC42   TRAC43   TRAC44   TRAC45   TRAC46   TRAC47   TRAC48   TRAC49   TRAC50
(PID.TID 0000.0001)  Fields:    TRAC51   TRAC52   TRAC53   TRAC54   TRAC55   TRAC56   TRAC57   TRAC58   TRAC59   TRAC60
(PID.TID 0000.0001)  Fields:    TRAC61   TRAC62   TRAC63   TRAC64   TRAC65   TRAC66   TRAC67   TRAC68   TRAC69   TRAC70
(PID.TID 0000.0001)  Fields:    TRAC71   TRAC72   TRAC73   TRAC74   TRAC75   TRAC76   TRAC77   TRAC78   TRAC79   TRAC80
(PID.TID 0000.0001)  Fields:    TRAC81   TRAC82   TRAC83   TRAC84   TRAC85   TRAC86   TRAC87   TRAC88   TRAC89   TRAC90
(PID.TID 0000.0001)  Fields:    TRAC91   TRAC92   TRAC93   TRAC94   TRAC95   TRAC96   TRAC97   TRAC98   TRAC99   TRAC0a
(PID.TID 0000.0001)  Fields:    TRAC0b   TRAC0c   TRAC0d   TRAC0e   TRAC0f   TRAC0g   TRAC0h   TRAC0i   TRAC0j   TRAC0k
(PID.TID 0000.0001)  Fields:    TRAC0l   TRAC0m   TRAC0n   TRAC0o   TRAC0p   TRAC0q   TRAC0r   TRAC0s   TRAC0t   TRAC0u
(PID.TID 0000.0001)  Fields:    TRAC0v   TRAC0w   TRAC0x   TRAC0y   TRAC0z   TRAC0A   TRAC0B   TRAC0C   TRAC0D   TRAC0E
(PID.TID 0000.0001)  Fields:    TRAC0F   TRAC0G   TRAC0H   TRAC0I   TRAC0J   TRAC0K   TRAC0L   TRAC0M   TRAC0N   TRAC0O
(PID.TID 0000.0001)  Fields:    TRAC0P   TRAC0Q   TRAC0R   TRAC0S   TRAC0T   TRAC0U   TRAC0V   TRAC0W   TRAC0X   TRAC0Y
(PID.TID 0000.0001)  Fields:    TRAC0Z   TRAC1a   TRAC1b   TRAC1c   TRAC1d   TRAC1e   TRAC1f   TRAC1g   TRAC1h   TRAC1i
(PID.TID 0000.0001)  Fields:    TRAC1j   TRAC1k   TRAC1l   TRAC1m   TRAC1n   TRAC1o   TRAC1p   TRAC1q   TRAC1r   TRAC1s
(PID.TID 0000.0001)  Fields:    TRAC1t   TRAC1u   TRAC1v   TRAC1w   TRAC1x   PAR01    DIC_c01  DIC_c02  c01_DOC  c02_DOC
(PID.TID 0000.0001)  Fields:    c01_POC  c02_POC  PARF     atten    surfPAR  exfPAR   limn01   limp01   limsi01  limfe01
(PID.TID 0000.0001)  Fields:    limI01   limT01   c01_c    c02_c    c_c03    c_c04    c_DOC    c_POC    c_PIC    n_DON
(PID.TID 0000.0001)  Fields:    n_PON    p_DOP    p_POP
(PID.TID 0000.0001) -----------------------------------------------------
(PID.TID 0000.0001)  DIAGNOSTICS_READPARMS: statistics diags. summary:
(PID.TID 0000.0001) -----------------------------------------------------
(PID.TID 0000.0001) 
(PID.TID 0000.0001) SET_PARMS: done
(PID.TID 0000.0001) Enter INI_VERTICAL_GRID: setInterFDr=    T ; setCenterDr=    F
(PID.TID 0000.0001) %MON XC_max                       =   3.35500000000000000E+02
(PID.TID 0000.0001) %MON XC_min                       =   3.35500000000000000E+02
(PID.TID 0000.0001) %MON XC_mean                      =   3.35500000000000000E+02
(PID.TID 0000.0001) %MON XC_sd                        =   0.00000000000000000E+00
(PID.TID 0000.0001) %MON XG_max                       =   3.35000000000000000E+02
(PID.TID 0000.0001) %MON XG_min                       =   3.35000000000000000E+02
(PID.TID 0000.0001) %MON XG_mean                      =   3.35000000000000000E+02
(PID.TID 0000.0001) %MON XG_sd                        =   0.00000000000000000E+00
(PID.TID 0000.0001) %MON DXC_max                      =   1.06031840877198687E+05
(PID.TID 0000.0001) %MON DXC_min                      =   1.06031840877198687E+05
(PID.TID 0000.0001) %MON DXC_mean                     =   1.06031840877198687E+05
(PID.TID 0000.0001) %MON DXC_sd                       =   0.00000000000000000E+00
(PID.TID 0000.0001) %MON DXF_max                      =   1.06031840877198687E+05
(PID.TID 0000.0001) %MON DXF_min                      =   1.06031840877198687E+05
(PID.TID 0000.0001) %MON DXF_mean                     =   1.06031840877198687E+05
(PID.TID 0000.0001) %MON DXF_sd                       =   0.00000000000000000E+00
(PID.TID 0000.0001) %MON DXG_max                      =   1.05736060496687278E+05
(PID.TID 0000.0001) %MON DXG_min                      =   1.05736060496687278E+05
(PID.TID 0000.0001) %MON DXG_mean                     =   1.05736060496687278E+05
(PID.TID 0000.0001) %MON DXG_sd                       =   0.00000000000000000E+00
(PID.TID 0000.0001) %MON DXV_max                      =   1.05736060496687278E+05
(PID.TID 0000.0001) %MON DXV_min                      =   1.05736060496687278E+05
(PID.TID 0000.0001) %MON DXV_mean                     =   1.05736060496687278E+05
(PID.TID 0000.0001) %MON DXV_sd                       =   0.00000000000000000E+00
(PID.TID 0000.0001) %MON YC_max                       =  -1.75000000000000000E+01
(PID.TID 0000.0001) %MON YC_min                       =  -1.75000000000000000E+01
(PID.TID 0000.0001) %MON YC_mean                      =  -1.75000000000000000E+01
(PID.TID 0000.0001) %MON YC_sd                        =   0.00000000000000000E+00
(PID.TID 0000.0001) %MON YG_max                       =  -1.80000000000000000E+01
(PID.TID 0000.0001) %MON YG_min                       =  -1.80000000000000000E+01
(PID.TID 0000.0001) %MON YG_mean                      =  -1.80000000000000000E+01
(PID.TID 0000.0001) %MON YG_sd                        =   0.00000000000000000E+00
(PID.TID 0000.0001) %MON DYC_max                      =   1.11177473352038796E+05
(PID.TID 0000.0001) %MON DYC_min                      =   1.11177473352038796E+05
(PID.TID 0000.0001) %MON DYC_mean                     =   1.11177473352038796E+05
(PID.TID 0000.0001) %MON DYC_sd                       =   0.00000000000000000E+00
(PID.TID 0000.0001) %MON DYF_max                      =   1.11177473352038796E+05
(PID.TID 0000.0001) %MON DYF_min                      =   1.11177473352038796E+05
(PID.TID 0000.0001) %MON DYF_mean                     =   1.11177473352038796E+05
(PID.TID 0000.0001) %MON DYF_sd                       =   0.00000000000000000E+00
(PID.TID 0000.0001) %MON DYG_max                      =   1.11177473352038796E+05
(PID.TID 0000.0001) %MON DYG_min                      =   1.11177473352038796E+05
(PID.TID 0000.0001) %MON DYG_mean                     =   1.11177473352038796E+05
(PID.TID 0000.0001) %MON DYG_sd                       =   0.00000000000000000E+00
(PID.TID 0000.0001) %MON DYU_max                      =   1.11177473352038796E+05
(PID.TID 0000.0001) %MON DYU_min                      =   1.11177473352038796E+05
(PID.TID 0000.0001) %MON DYU_mean                     =   1.11177473352038796E+05
(PID.TID 0000.0001) %MON DYU_sd                       =   0.00000000000000000E+00
(PID.TID 0000.0001) %MON RA_max                       =   1.17882025417695599E+10
(PID.TID 0000.0001) %MON RA_min                       =   1.17882025417695599E+10
(PID.TID 0000.0001) %MON RA_mean                      =   1.17882025417695599E+10
(PID.TID 0000.0001) %MON RA_sd                        =   0.00000000000000000E+00
(PID.TID 0000.0001) %MON RAW_max                      =   1.17882025417695599E+10
(PID.TID 0000.0001) %MON RAW_min                      =   1.17882025417695599E+10
(PID.TID 0000.0001) %MON RAW_mean                     =   1.17882025417695599E+10
(PID.TID 0000.0001) %MON RAW_sd                       =   0.00000000000000000E+00
(PID.TID 0000.0001) %MON RAS_max                      =   1.17553188437737656E+10
(PID.TID 0000.0001) %MON RAS_min                      =   1.17553188437737656E+10
(PID.TID 0000.0001) %MON RAS_mean                     =   1.17553188437737656E+10
(PID.TID 0000.0001) %MON RAS_sd                       =   0.00000000000000000E+00
(PID.TID 0000.0001) %MON RAZ_max                      =   1.17553188437737656E+10
(PID.TID 0000.0001) %MON RAZ_min                      =   1.17553188437737656E+10
(PID.TID 0000.0001) %MON RAZ_mean                     =   1.17553188437737656E+10
(PID.TID 0000.0001) %MON RAZ_sd                       =   0.00000000000000000E+00
(PID.TID 0000.0001) %MON AngleCS_max                  =   1.00000000000000000E+00
(PID.TID 0000.0001) %MON AngleCS_min                  =   1.00000000000000000E+00
(PID.TID 0000.0001) %MON AngleCS_mean                 =   1.00000000000000000E+00
(PID.TID 0000.0001) %MON AngleCS_sd                   =   0.00000000000000000E+00
(PID.TID 0000.0001) %MON AngleSN_max                  =   0.00000000000000000E+00
(PID.TID 0000.0001) %MON AngleSN_min                  =   0.00000000000000000E+00
(PID.TID 0000.0001) %MON AngleSN_mean                 =   0.00000000000000000E+00
(PID.TID 0000.0001) %MON AngleSN_sd                   =   0.00000000000000000E+00
(PID.TID 0000.0001)  MDS_READ_FIELD: opening global file: ../input/input/bathyneg.bin
(PID.TID 0000.0001) // =======================================================
(PID.TID 0000.0001) // Field Model R_low (ini_masks_etc)
(PID.TID 0000.0001) // CMIN =         -3.495000000000000E+03
(PID.TID 0000.0001) // CMAX =         -3.495000000000000E+03
(PID.TID 0000.0001) // CINT =          0.000000000000000E+00
(PID.TID 0000.0001) // SYMBOLS (CMIN->CMAX): -abcdefghijklmnopqrstuvwxyz+
(PID.TID 0000.0001) //                  0.0: .
(PID.TID 0000.0001) // RANGE I (Lo:Hi:Step):(    -1:     3:     1)
(PID.TID 0000.0001) // RANGE J (Lo:Hi:Step):(     3:    -1:    -1)
(PID.TID 0000.0001) // RANGE K (Lo:Hi:Step):(   1:   1:   1)
(PID.TID 0000.0001) // =======================================================
(PID.TID 0000.0001) // =======================================================
(PID.TID 0000.0001) // END OF FIELD                                          =
(PID.TID 0000.0001) // =======================================================
(PID.TID 0000.0001) 
(PID.TID 0000.0001) // =======================================================
(PID.TID 0000.0001) // Field Model Ro_surf (ini_masks_etc)
(PID.TID 0000.0001) // CMIN =          1.000000000000000E+32
(PID.TID 0000.0001) // CMAX =         -1.000000000000000E+32
(PID.TID 0000.0001) // CINT =          0.000000000000000E+00
(PID.TID 0000.0001) // SYMBOLS (CMIN->CMAX): -abcdefghijklmnopqrstuvwxyz+
(PID.TID 0000.0001) //                  0.0: .
(PID.TID 0000.0001) // RANGE I (Lo:Hi:Step):(    -1:     3:     1)
(PID.TID 0000.0001) // RANGE J (Lo:Hi:Step):(     3:    -1:    -1)
(PID.TID 0000.0001) // RANGE K (Lo:Hi:Step):(   1:   1:   1)
(PID.TID 0000.0001) // =======================================================
(PID.TID 0000.0001) // =======================================================
(PID.TID 0000.0001) // END OF FIELD                                          =
(PID.TID 0000.0001) // =======================================================
(PID.TID 0000.0001) 
(PID.TID 0000.0001) // =======================================================
(PID.TID 0000.0001) // Field hFacC at iteration          0
(PID.TID 0000.0001) // CMIN =          1.000000000000000E+00
(PID.TID 0000.0001) // CMAX =          1.000000000000000E+00
(PID.TID 0000.0001) // CINT =          0.000000000000000E+00
(PID.TID 0000.0001) // SYMBOLS (CMIN->CMAX): -abcdefghijklmnopqrstuvwxyz+
(PID.TID 0000.0001) //                  0.0: .
(PID.TID 0000.0001) // RANGE I (Lo:Hi:Step):(    -1:     3:     1)
(PID.TID 0000.0001) // RANGE J (Lo:Hi:Step):(     3:    -1:    -1)
(PID.TID 0000.0001) // RANGE K (Lo:Hi:Step):(   1:   1:   1)
(PID.TID 0000.0001) // =======================================================
(PID.TID 0000.0001) // =======================================================
(PID.TID 0000.0001) // END OF FIELD                                          =
(PID.TID 0000.0001) // =======================================================
(PID.TID 0000.0001) 
(PID.TID 0000.0001) // =======================================================
(PID.TID 0000.0001) // Field hFacW at iteration          0
(PID.TID 0000.0001) // CMIN =          1.000000000000000E+00
(PID.TID 0000.0001) // CMAX =          1.000000000000000E+00
(PID.TID 0000.0001) // CINT =          0.000000000000000E+00
(PID.TID 0000.0001) // SYMBOLS (CMIN->CMAX): -abcdefghijklmnopqrstuvwxyz+
(PID.TID 0000.0001) //                  0.0: .
(PID.TID 0000.0001) // RANGE I (Lo:Hi:Step):(    -1:     3:     1)
(PID.TID 0000.0001) // RANGE J (Lo:Hi:Step):(     3:    -1:    -1)
(PID.TID 0000.0001) // RANGE K (Lo:Hi:Step):(   1:   1:   1)
(PID.TID 0000.0001) // =======================================================
(PID.TID 0000.0001) // =======================================================
(PID.TID 0000.0001) // END OF FIELD                                          =
(PID.TID 0000.0001) // =======================================================
(PID.TID 0000.0001) 
(PID.TID 0000.0001) // =======================================================
(PID.TID 0000.0001) // Field hFacS at iteration          0
(PID.TID 0000.0001) // CMIN =          1.000000000000000E+00
(PID.TID 0000.0001) // CMAX =          1.000000000000000E+00
(PID.TID 0000.0001) // CINT =          0.000000000000000E+00
(PID.TID 0000.0001) // SYMBOLS (CMIN->CMAX): -abcdefghijklmnopqrstuvwxyz+
(PID.TID 0000.0001) //                  0.0: .
(PID.TID 0000.0001) // RANGE I (Lo:Hi:Step):(    -1:     3:     1)
(PID.TID 0000.0001) // RANGE J (Lo:Hi:Step):(     3:    -1:    -1)
(PID.TID 0000.0001) // RANGE K (Lo:Hi:Step):(   1:   1:   1)
(PID.TID 0000.0001) // =======================================================
(PID.TID 0000.0001) // =======================================================
(PID.TID 0000.0001) // END OF FIELD                                          =
(PID.TID 0000.0001) // =======================================================
(PID.TID 0000.0001) 
(PID.TID 0000.0001) 
(PID.TID 0000.0001) // =======================================================
(PID.TID 0000.0001) // Calendar configuration >>> START <<<
(PID.TID 0000.0001) // =======================================================
(PID.TID 0000.0001) 
(PID.TID 0000.0001) modelstart = /* Start time of the model integration [s] */
(PID.TID 0000.0001)                 0.000000000000000E+00
(PID.TID 0000.0001)     ;
(PID.TID 0000.0001) modelend  = /* End time of the model integration [s] */
(PID.TID 0000.0001)                 1.440000000000000E+04
(PID.TID 0000.0001)     ;
(PID.TID 0000.0001) modelstep = /* Time interval for a model forward step [s] */
(PID.TID 0000.0001)                 3.600000000000000E+03
(PID.TID 0000.0001)     ;
(PID.TID 0000.0001) usingGregorianCalendar= /* Calendar Type: Gregorian Calendar */
(PID.TID 0000.0001)                   F
(PID.TID 0000.0001)     ;
(PID.TID 0000.0001) usingJulianCalendar = /* Calendar Type: Julian Calendar */
(PID.TID 0000.0001)                   F
(PID.TID 0000.0001)     ;
(PID.TID 0000.0001) usingModelCalendar  = /* Calendar Type: Model Calendar */
(PID.TID 0000.0001)                   T
(PID.TID 0000.0001)     ;
(PID.TID 0000.0001) modelstartdate YYYYMMDD = /* Model start date YYYY-MM-DD */
(PID.TID 0000.0001)                19920101
(PID.TID 0000.0001)     ;
(PID.TID 0000.0001)   modelstartdate HHMMSS = /* Model start date HH-MM-SS  */
(PID.TID 0000.0001)                       0
(PID.TID 0000.0001)     ;
(PID.TID 0000.0001) modelenddate   YYYYMMDD = /* Model end date YYYY-MM-DD */
(PID.TID 0000.0001)                19920101
(PID.TID 0000.0001)     ;
(PID.TID 0000.0001)   modelenddate   HHMMSS = /* Model end date HH-MM-SS  */
(PID.TID 0000.0001)                   40000
(PID.TID 0000.0001)     ;
(PID.TID 0000.0001) intyears = /* Number of calendar years affected by the integration */
(PID.TID 0000.0001)                       1
(PID.TID 0000.0001)     ;
(PID.TID 0000.0001) intmonths= /* Number of calendar months affected by the integration */
(PID.TID 0000.0001)                       1
(PID.TID 0000.0001)     ;
(PID.TID 0000.0001) intdays = /* Number of calendar days affected by the integration */
(PID.TID 0000.0001)                       1
(PID.TID 0000.0001)     ;
(PID.TID 0000.0001) modeliter0 = /* Base timestep number  */
(PID.TID 0000.0001)                       0
(PID.TID 0000.0001)     ;
(PID.TID 0000.0001) modeliterend = /* Final timestep number  */
(PID.TID 0000.0001)                       4
(PID.TID 0000.0001)     ;
(PID.TID 0000.0001) modelintsteps= /* Number of model timesteps  */
(PID.TID 0000.0001)                       4
(PID.TID 0000.0001)     ;
(PID.TID 0000.0001) 
(PID.TID 0000.0001) // =======================================================
(PID.TID 0000.0001) // Calendar configuration  >>> END <<<
(PID.TID 0000.0001) // =======================================================
(PID.TID 0000.0001) 
(PID.TID 0000.0001) GAD_INIT_FIXED: GAD_OlMinSize=  2  0  1
(PID.TID 0000.0001) 
(PID.TID 0000.0001) // ===================================
(PID.TID 0000.0001) // GAD parameters :
(PID.TID 0000.0001) // ===================================
(PID.TID 0000.0001) tempAdvScheme =   /* Temp. Horiz.Advection scheme selector */
(PID.TID 0000.0001)                       3
(PID.TID 0000.0001)     ;
(PID.TID 0000.0001) tempVertAdvScheme =   /* Temp. Vert. Advection scheme selector */
(PID.TID 0000.0001)                       3
(PID.TID 0000.0001)     ;
(PID.TID 0000.0001) tempMultiDimAdvec =   /* use Muti-Dim Advec method for Temp */
(PID.TID 0000.0001)                   F
(PID.TID 0000.0001)     ;
(PID.TID 0000.0001) tempSOM_Advection = /* use 2nd Order Moment Advection for Temp */
(PID.TID 0000.0001)                   F
(PID.TID 0000.0001)     ;
(PID.TID 0000.0001) AdamsBashforthGt = /* apply Adams-Bashforth extrapolation on Gt */
(PID.TID 0000.0001)                   T
(PID.TID 0000.0001)     ;
(PID.TID 0000.0001) AdamsBashforth_T = /* apply Adams-Bashforth extrapolation on Temp */
(PID.TID 0000.0001)                   F
(PID.TID 0000.0001)     ;
(PID.TID 0000.0001) saltAdvScheme =   /* Salt. Horiz.advection scheme selector */
(PID.TID 0000.0001)                       3
(PID.TID 0000.0001)     ;
(PID.TID 0000.0001) saltVertAdvScheme =   /* Salt. Vert. Advection scheme selector */
(PID.TID 0000.0001)                       3
(PID.TID 0000.0001)     ;
(PID.TID 0000.0001) saltMultiDimAdvec =   /* use Muti-Dim Advec method for Salt */
(PID.TID 0000.0001)                   F
(PID.TID 0000.0001)     ;
(PID.TID 0000.0001) saltSOM_Advection = /* use 2nd Order Moment Advection for Salt */
(PID.TID 0000.0001)                   F
(PID.TID 0000.0001)     ;
(PID.TID 0000.0001) AdamsBashforthGs = /* apply Adams-Bashforth extrapolation on Gs */
(PID.TID 0000.0001)                   F
(PID.TID 0000.0001)     ;
(PID.TID 0000.0001) AdamsBashforth_S = /* apply Adams-Bashforth extrapolation on Salt */
(PID.TID 0000.0001)                   F
(PID.TID 0000.0001)     ;
(PID.TID 0000.0001) // ===================================
(PID.TID 0000.0001) 
(PID.TID 0000.0001) // =======================================================
(PID.TID 0000.0001) // External forcing (EXF) configuration >>> START <<<
(PID.TID 0000.0001) // =======================================================
(PID.TID 0000.0001) 
(PID.TID 0000.0001)  EXF general parameters:
(PID.TID 0000.0001) 
(PID.TID 0000.0001) exf_iprec = /* exf file precision */
(PID.TID 0000.0001)                      32
(PID.TID 0000.0001)     ;
(PID.TID 0000.0001) useExfYearlyFields = /* add extension _YEAR to input file names */
(PID.TID 0000.0001)                   T
(PID.TID 0000.0001)     ;
(PID.TID 0000.0001) twoDigitYear = /* use 2-digit year extension */
(PID.TID 0000.0001)                   T
(PID.TID 0000.0001)     ;
(PID.TID 0000.0001) exf_verbose = /* print more messages to STDOUT */
(PID.TID 0000.0001)                   F
(PID.TID 0000.0001)     ;
(PID.TID 0000.0001) useExfCheckRange = /* check for fields range */
(PID.TID 0000.0001)                   F
(PID.TID 0000.0001)     ;
(PID.TID 0000.0001) exf_monFreq = /* EXF monitor frequency [ s ] */
(PID.TID 0000.0001)                 1.000000000000000E+00
(PID.TID 0000.0001)     ;
(PID.TID 0000.0001) repeatPeriod = /* period for cycling forcing dataset [ s ] */
(PID.TID 0000.0001)                 0.000000000000000E+00
(PID.TID 0000.0001)     ;
(PID.TID 0000.0001) climTempFreeze= /* Minimum climatological temperature [deg.C] */
(PID.TID 0000.0001)                -1.900000000000000E+00
(PID.TID 0000.0001)     ;
(PID.TID 0000.0001) windStressMax = /* Maximum absolute windstress [ Pa ] */
(PID.TID 0000.0001)                 2.000000000000000E+00
(PID.TID 0000.0001)     ;
(PID.TID 0000.0001) stressIsOnCgrid = /* set u,v_stress on Arakawa C-grid */
(PID.TID 0000.0001)                   F
(PID.TID 0000.0001)     ;
(PID.TID 0000.0001) cen2kel = /* conversion of deg. Centigrade to Kelvin [K] */
(PID.TID 0000.0001)                 2.731500000000000E+02
(PID.TID 0000.0001)     ;
(PID.TID 0000.0001) gravity_mks= /* gravitational acceleration [m/s^2] */
(PID.TID 0000.0001)                 9.810000000000000E+00
(PID.TID 0000.0001)     ;
(PID.TID 0000.0001) atmrho =  /* mean atmospheric density [kg/m^3] */
(PID.TID 0000.0001)                 1.200000000000000E+00
(PID.TID 0000.0001)     ;
(PID.TID 0000.0001) atmcp =  /* mean atmospheric specific heat [J/kg/K] */
(PID.TID 0000.0001)                 1.005000000000000E+03
(PID.TID 0000.0001)     ;
(PID.TID 0000.0001) flamb =  /* latent heat of evaporation [J/kg] */
(PID.TID 0000.0001)                 2.500000000000000E+06
(PID.TID 0000.0001)     ;
(PID.TID 0000.0001) flami =  /* latent heat of pure-ice melting [J/kg] */
(PID.TID 0000.0001)                 3.340000000000000E+05
(PID.TID 0000.0001)     ;
(PID.TID 0000.0001) cvapor_fac = /* const. for Saturation calculation [?] */
(PID.TID 0000.0001)                 6.403800000000000E+05
(PID.TID 0000.0001)     ;
(PID.TID 0000.0001) cvapor_exp = /* const. for Saturation calculation [?] */
(PID.TID 0000.0001)                 5.107400000000000E+03
(PID.TID 0000.0001)     ;
(PID.TID 0000.0001) cvapor_fac_ice= /* const. for Saturation calculation [?] */
(PID.TID 0000.0001)                 1.163780000000000E+07
(PID.TID 0000.0001)     ;
(PID.TID 0000.0001) cvapor_exp_ice= /* const. for Saturation calculation [?] */
(PID.TID 0000.0001)                 5.897800000000000E+03
(PID.TID 0000.0001)     ;
(PID.TID 0000.0001) humid_fac = /* humidity coef. in virtual temp. [(kg/kg)^-1] */
(PID.TID 0000.0001)                 6.060000000000000E-01
(PID.TID 0000.0001)     ;
(PID.TID 0000.0001) gamma_blk = /* adiabatic lapse rate [?] */
(PID.TID 0000.0001)                 1.000000000000000E-02
(PID.TID 0000.0001)     ;
(PID.TID 0000.0001) saltsat = /* reduction of Qsat over salty water [-] */
(PID.TID 0000.0001)                 9.800000000000000E-01
(PID.TID 0000.0001)     ;
(PID.TID 0000.0001) noNegativeEvap = /* prevent negative Evaporation */
(PID.TID 0000.0001)                   F
(PID.TID 0000.0001)     ;
(PID.TID 0000.0001) sstExtrapol = /* extrapolation coeff from lev. 1 & 2 to surf [-] */
(PID.TID 0000.0001)                 0.000000000000000E+00
(PID.TID 0000.0001)     ;
(PID.TID 0000.0001) cDrag_1 = /* coef used in drag calculation [?] */
(PID.TID 0000.0001)                 2.700000000000000E-03
(PID.TID 0000.0001)     ;
(PID.TID 0000.0001) cDrag_2 = /* coef used in drag calculation [?] */
(PID.TID 0000.0001)                 1.420000000000000E-04
(PID.TID 0000.0001)     ;
(PID.TID 0000.0001) cDrag_3 = /* coef used in drag calculation [?] */
(PID.TID 0000.0001)                 7.640000000000000E-05
(PID.TID 0000.0001)     ;
(PID.TID 0000.0001) cStanton_1 = /* coef used in Stanton number calculation [?] */
(PID.TID 0000.0001)                 3.270000000000000E-02
(PID.TID 0000.0001)     ;
(PID.TID 0000.0001) cStanton_2 = /* coef used in Stanton number calculation [?] */
(PID.TID 0000.0001)                 1.800000000000000E-02
(PID.TID 0000.0001)     ;
(PID.TID 0000.0001) cDalton = /* coef used in Dalton number calculation [?] */
(PID.TID 0000.0001)                 3.460000000000000E-02
(PID.TID 0000.0001)     ;
(PID.TID 0000.0001) exf_scal_BulkCdn= /* Drag coefficient scaling factor [-] */
(PID.TID 0000.0001)                 1.000000000000000E+00
(PID.TID 0000.0001)     ;
(PID.TID 0000.0001) zolmin = /* minimum stability parameter [?] */
(PID.TID 0000.0001)                -1.000000000000000E+02
(PID.TID 0000.0001)     ;
(PID.TID 0000.0001) psim_fac = /* coef used in turbulent fluxes calculation [-] */
(PID.TID 0000.0001)                 5.000000000000000E+00
(PID.TID 0000.0001)     ;
(PID.TID 0000.0001) zref =  /* reference height [ m ] */
(PID.TID 0000.0001)                 1.000000000000000E+01
(PID.TID 0000.0001)     ;
(PID.TID 0000.0001) hu =  /* height of mean wind [ m ] */
(PID.TID 0000.0001)                 1.000000000000000E+01
(PID.TID 0000.0001)     ;
(PID.TID 0000.0001) ht =  /* height of mean temperature [ m ] */
(PID.TID 0000.0001)                 2.000000000000000E+00
(PID.TID 0000.0001)     ;
(PID.TID 0000.0001) hq =  /* height of mean spec.humidity [ m ] */
(PID.TID 0000.0001)                 2.000000000000000E+00
(PID.TID 0000.0001)     ;
(PID.TID 0000.0001) uMin = /* minimum wind speed [m/s] */
(PID.TID 0000.0001)                 5.000000000000000E-01
(PID.TID 0000.0001)     ;
(PID.TID 0000.0001) useStabilityFct_overIce= /* transfert Coeffs over sea-ice depend on stability */
(PID.TID 0000.0001)                   F
(PID.TID 0000.0001)     ;
(PID.TID 0000.0001) exf_iceCd = /* drag coefficient over sea-ice (fixed) [-] */
(PID.TID 0000.0001)                 1.630000000000000E-03
(PID.TID 0000.0001)     ;
(PID.TID 0000.0001) exf_iceCe = /* transfert coeff. over sea-ice, for Evap (fixed) [-] */
(PID.TID 0000.0001)                 1.630000000000000E-03
(PID.TID 0000.0001)     ;
(PID.TID 0000.0001) exf_iceCh = /* transfert coeff. over sea-ice, Sens.Heat.(fixed)[-] */
(PID.TID 0000.0001)                 1.630000000000000E-03
(PID.TID 0000.0001)     ;
(PID.TID 0000.0001) exf_albedo =  /* Sea-water albedo [-] */
(PID.TID 0000.0001)                 1.500000000000000E-01
(PID.TID 0000.0001)     ;
(PID.TID 0000.0001) useExfZenAlbedo = /* Sea-water albedo varies with zenith angle */
(PID.TID 0000.0001)                   F
(PID.TID 0000.0001)     ;
(PID.TID 0000.0001) select_ZenAlbedo = /* Sea-water albedo computation method */
(PID.TID 0000.0001)                       0
(PID.TID 0000.0001)     ;
(PID.TID 0000.0001) useExfZenIncoming = /* compute incoming solar radiation */
(PID.TID 0000.0001)                   F
(PID.TID 0000.0001)     ;
(PID.TID 0000.0001) ocean_emissivity = /* longwave ocean-surface emissivity [-] */
(PID.TID 0000.0001)                 9.700176366843034E-01
(PID.TID 0000.0001)     ;
(PID.TID 0000.0001) ice_emissivity = /* longwave seaice emissivity [-] */
(PID.TID 0000.0001)                 9.500000000000000E-01
(PID.TID 0000.0001)     ;
(PID.TID 0000.0001) snow_emissivity = /* longwave snow  emissivity [-] */
(PID.TID 0000.0001)                 9.500000000000000E-01
(PID.TID 0000.0001)     ;
(PID.TID 0000.0001) 
(PID.TID 0000.0001)  EXF main CPP flags:
(PID.TID 0000.0001) 
(PID.TID 0000.0001) // USE_EXF_INTERPOLATION:          NOT defined
(PID.TID 0000.0001) // ALLOW_ATM_TEMP:                     defined
(PID.TID 0000.0001) // ALLOW_ATM_WIND (useAtmWind):        defined
(PID.TID 0000.0001) // ALLOW_DOWNWARD_RADIATION:           defined
(PID.TID 0000.0001) // ALLOW_BULKFORMULAE:                 defined
(PID.TID 0000.0001) 
(PID.TID 0000.0001)    Net shortwave flux forcing starts at                0.
(PID.TID 0000.0001)    Net shortwave flux forcing period is                0.
(PID.TID 0000.0001)    Net shortwave flux forcing is read from file:
(PID.TID 0000.0001)    >>    <<
(PID.TID 0000.0001) 
(PID.TID 0000.0001)    Zonal wind forcing starts at                          0.
(PID.TID 0000.0001)    Zonal wind forcing period is                          0.
(PID.TID 0000.0001)    Zonal wind forcing is read from file:
(PID.TID 0000.0001)    >>    <<
(PID.TID 0000.0001) 
(PID.TID 0000.0001)    Meridional wind forcing starts at                     0.
(PID.TID 0000.0001)    Meridional wind forcing period is                     0.
(PID.TID 0000.0001)    Meridional wind forcing is read from file:
(PID.TID 0000.0001)    >>    <<
(PID.TID 0000.0001) 
(PID.TID 0000.0001)    Atmospheric temperature starts at                     0.
(PID.TID 0000.0001)    Atmospheric temperature period is                     0.
(PID.TID 0000.0001)    Atmospheric temperature is read from file:
(PID.TID 0000.0001)    >>    <<
(PID.TID 0000.0001) 
(PID.TID 0000.0001)    Atmospheric specific humidity starts at               0.
(PID.TID 0000.0001)    Atmospheric specific humidity period is               0.
(PID.TID 0000.0001)    Atmospheric specific humidity is read from file:
(PID.TID 0000.0001)    >>    <<
(PID.TID 0000.0001) 
(PID.TID 0000.0001)    Net longwave flux forcing starts at                 0.
(PID.TID 0000.0001)    Net longwave flux forcing period is                 0.
(PID.TID 0000.0001)    Net longwave flux forcing is read from file:
(PID.TID 0000.0001)    >>    <<
(PID.TID 0000.0001) 
(PID.TID 0000.0001)    Precipitation data set starts at                      0.
(PID.TID 0000.0001)    Precipitation data period is                          0.
(PID.TID 0000.0001)    Precipitation data is read from file:
(PID.TID 0000.0001)    >>    <<
(PID.TID 0000.0001) 
(PID.TID 0000.0001) // EXF_READ_EVAP:                  NOT defined
(PID.TID 0000.0001) 
(PID.TID 0000.0001) // ALLOW_RUNOFF:                       defined
(PID.TID 0000.0001)    Runoff starts at               0.
(PID.TID 0000.0001)    Runoff period is               0.
(PID.TID 0000.0001)    Runoff is read from file:
(PID.TID 0000.0001)    >>    <<
(PID.TID 0000.0001) 
(PID.TID 0000.0001)    Downward shortwave flux forcing starts at                0.
(PID.TID 0000.0001)    Downward shortwave flux forcing period is                0.
(PID.TID 0000.0001)    Downward shortwave flux forcing is read from file:
(PID.TID 0000.0001)    >>    <<
(PID.TID 0000.0001) 
(PID.TID 0000.0001)    Downward longwave flux forcing starts at                 0.
(PID.TID 0000.0001)    Downward longwave flux forcing period is                 0.
(PID.TID 0000.0001)    Downward longwave flux forcing is read from file:
(PID.TID 0000.0001)    >>    <<
(PID.TID 0000.0001) 
(PID.TID 0000.0001)    Atmospheric pressure forcing starts at                0.
(PID.TID 0000.0001)    Atmospheric pressure forcing period is                0.
(PID.TID 0000.0001)    Atmospheric pressureforcing is read from file:
(PID.TID 0000.0001)    >>    <<
(PID.TID 0000.0001) 
(PID.TID 0000.0001) // =======================================================
(PID.TID 0000.0001) // External forcing (EXF) climatology configuration :
(PID.TID 0000.0001) // =======================================================
(PID.TID 0000.0001) 
(PID.TID 0000.0001) // ALLOW_CLIMSST_RELAXATION:       NOT defined
(PID.TID 0000.0001) // ALLOW_CLIMSSS_RELAXATION:       NOT defined
(PID.TID 0000.0001) 
(PID.TID 0000.0001) // =======================================================
(PID.TID 0000.0001) // External forcing (EXF) configuration  >>> END <<<
(PID.TID 0000.0001) // =======================================================
(PID.TID 0000.0001) 
(PID.TID 0000.0001) ------------------------------------------------------------
(PID.TID 0000.0001) DIAGNOSTICS_SET_LEVELS: done
(PID.TID 0000.0001)  Total Nb of available Diagnostics: ndiagt=  3135
(PID.TID 0000.0001)  write list of available Diagnostics to file: available_diagnostics.log
(PID.TID 0000.0001) SETDIAG: Allocate 35 x  1 Levels for Diagnostic #   140 TRAC01
(PID.TID 0000.0001) SETDIAG: Allocate 35 x  1 Levels for Diagnostic #   152 TRAC02
(PID.TID 0000.0001) SETDIAG: Allocate 35 x  1 Levels for Diagnostic #   164 TRAC03
(PID.TID 0000.0001) SETDIAG: Allocate 35 x  1 Levels for Diagnostic #   176 TRAC04
(PID.TID 0000.0001) SETDIAG: Allocate 35 x  1 Levels for Diagnostic #   188 TRAC05
(PID.TID 0000.0001) SETDIAG: Allocate 35 x  1 Levels for Diagnostic #   200 TRAC06
(PID.TID 0000.0001) SETDIAG: Allocate 35 x  1 Levels for Diagnostic #   212 TRAC07
(PID.TID 0000.0001) SETDIAG: Allocate 35 x  1 Levels for Diagnostic #   224 TRAC08
(PID.TID 0000.0001) SETDIAG: Allocate 35 x  1 Levels for Diagnostic #   236 TRAC09
(PID.TID 0000.0001) SETDIAG: Allocate 35 x  1 Levels for Diagnostic #   248 TRAC10
(PID.TID 0000.0001) SETDIAG: Allocate 35 x  1 Levels for Diagnostic #   260 TRAC11
(PID.TID 0000.0001) SETDIAG: Allocate 35 x  1 Levels for Diagnostic #   272 TRAC12
(PID.TID 0000.0001) SETDIAG: Allocate 35 x  1 Levels for Diagnostic #   284 TRAC13
(PID.TID 0000.0001) SETDIAG: Allocate 35 x  1 Levels for Diagnostic #   296 TRAC14
(PID.TID 0000.0001) SETDIAG: Allocate 35 x  1 Levels for Diagnostic #   308 TRAC15
(PID.TID 0000.0001) SETDIAG: Allocate 35 x  1 Levels for Diagnostic #   320 TRAC16
(PID.TID 0000.0001) SETDIAG: Allocate 35 x  1 Levels for Diagnostic #   332 TRAC17
(PID.TID 0000.0001) SETDIAG: Allocate 35 x  1 Levels for Diagnostic #   344 TRAC18
(PID.TID 0000.0001) SETDIAG: Allocate 35 x  1 Levels for Diagnostic #   356 TRAC19
(PID.TID 0000.0001) SETDIAG: Allocate 35 x  1 Levels for Diagnostic #   368 TRAC20
(PID.TID 0000.0001) SETDIAG: Allocate 35 x  1 Levels for Diagnostic #   380 TRAC21
(PID.TID 0000.0001) SETDIAG: Allocate 35 x  1 Levels for Diagnostic #   392 TRAC22
(PID.TID 0000.0001) SETDIAG: Allocate 35 x  1 Levels for Diagnostic #   404 TRAC23
(PID.TID 0000.0001) SETDIAG: Allocate 35 x  1 Levels for Diagnostic #   416 TRAC24
(PID.TID 0000.0001) SETDIAG: Allocate 35 x  1 Levels for Diagnostic #   428 TRAC25
(PID.TID 0000.0001) SETDIAG: Allocate 35 x  1 Levels for Diagnostic #   440 TRAC26
(PID.TID 0000.0001) SETDIAG: Allocate 35 x  1 Levels for Diagnostic #   452 TRAC27
(PID.TID 0000.0001) SETDIAG: Allocate 35 x  1 Levels for Diagnostic #   464 TRAC28
(PID.TID 0000.0001) SETDIAG: Allocate 35 x  1 Levels for Diagnostic #   476 TRAC29
(PID.TID 0000.0001) SETDIAG: Allocate 35 x  1 Levels for Diagnostic #   488 TRAC30
(PID.TID 0000.0001) SETDIAG: Allocate 35 x  1 Levels for Diagnostic #   500 TRAC31
(PID.TID 0000.0001) SETDIAG: Allocate 35 x  1 Levels for Diagnostic #   512 TRAC32
(PID.TID 0000.0001) SETDIAG: Allocate 35 x  1 Levels for Diagnostic #   524 TRAC33
(PID.TID 0000.0001) SETDIAG: Allocate 35 x  1 Levels for Diagnostic #   536 TRAC34
(PID.TID 0000.0001) SETDIAG: Allocate 35 x  1 Levels for Diagnostic #   548 TRAC35
(PID.TID 0000.0001) SETDIAG: Allocate 35 x  1 Levels for Diagnostic #   560 TRAC36
(PID.TID 0000.0001) SETDIAG: Allocate 35 x  1 Levels for Diagnostic #   572 TRAC37
(PID.TID 0000.0001) SETDIAG: Allocate 35 x  1 Levels for Diagnostic #   584 TRAC38
(PID.TID 0000.0001) SETDIAG: Allocate 35 x  1 Levels for Diagnostic #   596 TRAC39
(PID.TID 0000.0001) SETDIAG: Allocate 35 x  1 Levels for Diagnostic #   608 TRAC40
(PID.TID 0000.0001) SETDIAG: Allocate 35 x  1 Levels for Diagnostic #   620 TRAC41
(PID.TID 0000.0001) SETDIAG: Allocate 35 x  1 Levels for Diagnostic #   632 TRAC42
(PID.TID 0000.0001) SETDIAG: Allocate 35 x  1 Levels for Diagnostic #   644 TRAC43
(PID.TID 0000.0001) SETDIAG: Allocate 35 x  1 Levels for Diagnostic #   656 TRAC44
(PID.TID 0000.0001) SETDIAG: Allocate 35 x  1 Levels for Diagnostic #   668 TRAC45
(PID.TID 0000.0001) SETDIAG: Allocate 35 x  1 Levels for Diagnostic #   680 TRAC46
(PID.TID 0000.0001) SETDIAG: Allocate 35 x  1 Levels for Diagnostic #   692 TRAC47
(PID.TID 0000.0001) SETDIAG: Allocate 35 x  1 Levels for Diagnostic #   704 TRAC48
(PID.TID 0000.0001) SETDIAG: Allocate 35 x  1 Levels for Diagnostic #   716 TRAC49
(PID.TID 0000.0001) SETDIAG: Allocate 35 x  1 Levels for Diagnostic #   728 TRAC50
(PID.TID 0000.0001) SETDIAG: Allocate 35 x  1 Levels for Diagnostic #   740 TRAC51
(PID.TID 0000.0001) SETDIAG: Allocate 35 x  1 Levels for Diagnostic #   752 TRAC52
(PID.TID 0000.0001) SETDIAG: Allocate 35 x  1 Levels for Diagnostic #   764 TRAC53
(PID.TID 0000.0001) SETDIAG: Allocate 35 x  1 Levels for Diagnostic #   776 TRAC54
(PID.TID 0000.0001) SETDIAG: Allocate 35 x  1 Levels for Diagnostic #   788 TRAC55
(PID.TID 0000.0001) SETDIAG: Allocate 35 x  1 Levels for Diagnostic #   800 TRAC56
(PID.TID 0000.0001) SETDIAG: Allocate 35 x  1 Levels for Diagnostic #   812 TRAC57
(PID.TID 0000.0001) SETDIAG: Allocate 35 x  1 Levels for Diagnostic #   824 TRAC58
(PID.TID 0000.0001) SETDIAG: Allocate 35 x  1 Levels for Diagnostic #   836 TRAC59
(PID.TID 0000.0001) SETDIAG: Allocate 35 x  1 Levels for Diagnostic #   848 TRAC60
(PID.TID 0000.0001) SETDIAG: Allocate 35 x  1 Levels for Diagnostic #   860 TRAC61
(PID.TID 0000.0001) SETDIAG: Allocate 35 x  1 Levels for Diagnostic #   872 TRAC62
(PID.TID 0000.0001) SETDIAG: Allocate 35 x  1 Levels for Diagnostic #   884 TRAC63
(PID.TID 0000.0001) SETDIAG: Allocate 35 x  1 Levels for Diagnostic #   896 TRAC64
(PID.TID 0000.0001) SETDIAG: Allocate 35 x  1 Levels for Diagnostic #   908 TRAC65
(PID.TID 0000.0001) SETDIAG: Allocate 35 x  1 Levels for Diagnostic #   920 TRAC66
(PID.TID 0000.0001) SETDIAG: Allocate 35 x  1 Levels for Diagnostic #   932 TRAC67
(PID.TID 0000.0001) SETDIAG: Allocate 35 x  1 Levels for Diagnostic #   944 TRAC68
(PID.TID 0000.0001) SETDIAG: Allocate 35 x  1 Levels for Diagnostic #   956 TRAC69
(PID.TID 0000.0001) SETDIAG: Allocate 35 x  1 Levels for Diagnostic #   968 TRAC70
(PID.TID 0000.0001) SETDIAG: Allocate 35 x  1 Levels for Diagnostic #   980 TRAC71
(PID.TID 0000.0001) SETDIAG: Allocate 35 x  1 Levels for Diagnostic #   992 TRAC72
(PID.TID 0000.0001) SETDIAG: Allocate 35 x  1 Levels for Diagnostic #  1004 TRAC73
(PID.TID 0000.0001) SETDIAG: Allocate 35 x  1 Levels for Diagnostic #  1016 TRAC74
(PID.TID 0000.0001) SETDIAG: Allocate 35 x  1 Levels for Diagnostic #  1028 TRAC75
(PID.TID 0000.0001) SETDIAG: Allocate 35 x  1 Levels for Diagnostic #  1040 TRAC76
(PID.TID 0000.0001) SETDIAG: Allocate 35 x  1 Levels for Diagnostic #  1052 TRAC77
(PID.TID 0000.0001) SETDIAG: Allocate 35 x  1 Levels for Diagnostic #  1064 TRAC78
(PID.TID 0000.0001) SETDIAG: Allocate 35 x  1 Levels for Diagnostic #  1076 TRAC79
(PID.TID 0000.0001) SETDIAG: Allocate 35 x  1 Levels for Diagnostic #  1088 TRAC80
(PID.TID 0000.0001) SETDIAG: Allocate 35 x  1 Levels for Diagnostic #  1100 TRAC81
(PID.TID 0000.0001) SETDIAG: Allocate 35 x  1 Levels for Diagnostic #  1112 TRAC82
(PID.TID 0000.0001) SETDIAG: Allocate 35 x  1 Levels for Diagnostic #  1124 TRAC83
(PID.TID 0000.0001) SETDIAG: Allocate 35 x  1 Levels for Diagnostic #  1136 TRAC84
(PID.TID 0000.0001) SETDIAG: Allocate 35 x  1 Levels for Diagnostic #  1148 TRAC85
(PID.TID 0000.0001) SETDIAG: Allocate 35 x  1 Levels for Diagnostic #  1160 TRAC86
(PID.TID 0000.0001) SETDIAG: Allocate 35 x  1 Levels for Diagnostic #  1172 TRAC87
(PID.TID 0000.0001) SETDIAG: Allocate 35 x  1 Levels for Diagnostic #  1184 TRAC88
(PID.TID 0000.0001) SETDIAG: Allocate 35 x  1 Levels for Diagnostic #  1196 TRAC89
(PID.TID 0000.0001) SETDIAG: Allocate 35 x  1 Levels for Diagnostic #  1208 TRAC90
(PID.TID 0000.0001) SETDIAG: Allocate 35 x  1 Levels for Diagnostic #  1220 TRAC91
(PID.TID 0000.0001) SETDIAG: Allocate 35 x  1 Levels for Diagnostic #  1232 TRAC92
(PID.TID 0000.0001) SETDIAG: Allocate 35 x  1 Levels for Diagnostic #  1244 TRAC93
(PID.TID 0000.0001) SETDIAG: Allocate 35 x  1 Levels for Diagnostic #  1256 TRAC94
(PID.TID 0000.0001) SETDIAG: Allocate 35 x  1 Levels for Diagnostic #  1268 TRAC95
(PID.TID 0000.0001) SETDIAG: Allocate 35 x  1 Levels for Diagnostic #  1280 TRAC96
(PID.TID 0000.0001) SETDIAG: Allocate 35 x  1 Levels for Diagnostic #  1292 TRAC97
(PID.TID 0000.0001) SETDIAG: Allocate 35 x  1 Levels for Diagnostic #  1304 TRAC98
(PID.TID 0000.0001) SETDIAG: Allocate 35 x  1 Levels for Diagnostic #  1316 TRAC99
(PID.TID 0000.0001) SETDIAG: Allocate 35 x  1 Levels for Diagnostic #  1328 TRAC0a
(PID.TID 0000.0001) SETDIAG: Allocate 35 x  1 Levels for Diagnostic #  1340 TRAC0b
(PID.TID 0000.0001) SETDIAG: Allocate 35 x  1 Levels for Diagnostic #  1352 TRAC0c
(PID.TID 0000.0001) SETDIAG: Allocate 35 x  1 Levels for Diagnostic #  1364 TRAC0d
(PID.TID 0000.0001) SETDIAG: Allocate 35 x  1 Levels for Diagnostic #  1376 TRAC0e
(PID.TID 0000.0001) SETDIAG: Allocate 35 x  1 Levels for Diagnostic #  1388 TRAC0f
(PID.TID 0000.0001) SETDIAG: Allocate 35 x  1 Levels for Diagnostic #  1400 TRAC0g
(PID.TID 0000.0001) SETDIAG: Allocate 35 x  1 Levels for Diagnostic #  1412 TRAC0h
(PID.TID 0000.0001) SETDIAG: Allocate 35 x  1 Levels for Diagnostic #  1424 TRAC0i
(PID.TID 0000.0001) SETDIAG: Allocate 35 x  1 Levels for Diagnostic #  1436 TRAC0j
(PID.TID 0000.0001) SETDIAG: Allocate 35 x  1 Levels for Diagnostic #  1448 TRAC0k
(PID.TID 0000.0001) SETDIAG: Allocate 35 x  1 Levels for Diagnostic #  1460 TRAC0l
(PID.TID 0000.0001) SETDIAG: Allocate 35 x  1 Levels for Diagnostic #  1472 TRAC0m
(PID.TID 0000.0001) SETDIAG: Allocate 35 x  1 Levels for Diagnostic #  1484 TRAC0n
(PID.TID 0000.0001) SETDIAG: Allocate 35 x  1 Levels for Diagnostic #  1496 TRAC0o
(PID.TID 0000.0001) SETDIAG: Allocate 35 x  1 Levels for Diagnostic #  1508 TRAC0p
(PID.TID 0000.0001) SETDIAG: Allocate 35 x  1 Levels for Diagnostic #  1520 TRAC0q
(PID.TID 0000.0001) SETDIAG: Allocate 35 x  1 Levels for Diagnostic #  1532 TRAC0r
(PID.TID 0000.0001) SETDIAG: Allocate 35 x  1 Levels for Diagnostic #  1544 TRAC0s
(PID.TID 0000.0001) SETDIAG: Allocate 35 x  1 Levels for Diagnostic #  1556 TRAC0t
(PID.TID 0000.0001) SETDIAG: Allocate 35 x  1 Levels for Diagnostic #  1568 TRAC0u
(PID.TID 0000.0001) SETDIAG: Allocate 35 x  1 Levels for Diagnostic #  1580 TRAC0v
(PID.TID 0000.0001) SETDIAG: Allocate 35 x  1 Levels for Diagnostic #  1592 TRAC0w
(PID.TID 0000.0001) SETDIAG: Allocate 35 x  1 Levels for Diagnostic #  1604 TRAC0x
(PID.TID 0000.0001) SETDIAG: Allocate 35 x  1 Levels for Diagnostic #  1616 TRAC0y
(PID.TID 0000.0001) SETDIAG: Allocate 35 x  1 Levels for Diagnostic #  1628 TRAC0z
(PID.TID 0000.0001) SETDIAG: Allocate 35 x  1 Levels for Diagnostic #  1640 TRAC0A
(PID.TID 0000.0001) SETDIAG: Allocate 35 x  1 Levels for Diagnostic #  1652 TRAC0B
(PID.TID 0000.0001) SETDIAG: Allocate 35 x  1 Levels for Diagnostic #  1664 TRAC0C
(PID.TID 0000.0001) SETDIAG: Allocate 35 x  1 Levels for Diagnostic #  1676 TRAC0D
(PID.TID 0000.0001) SETDIAG: Allocate 35 x  1 Levels for Diagnostic #  1688 TRAC0E
(PID.TID 0000.0001) SETDIAG: Allocate 35 x  1 Levels for Diagnostic #  1700 TRAC0F
(PID.TID 0000.0001) SETDIAG: Allocate 35 x  1 Levels for Diagnostic #  1712 TRAC0G
(PID.TID 0000.0001) SETDIAG: Allocate 35 x  1 Levels for Diagnostic #  1724 TRAC0H
(PID.TID 0000.0001) SETDIAG: Allocate 35 x  1 Levels for Diagnostic #  1736 TRAC0I
(PID.TID 0000.0001) SETDIAG: Allocate 35 x  1 Levels for Diagnostic #  1748 TRAC0J
(PID.TID 0000.0001) SETDIAG: Allocate 35 x  1 Levels for Diagnostic #  1760 TRAC0K
(PID.TID 0000.0001) SETDIAG: Allocate 35 x  1 Levels for Diagnostic #  1772 TRAC0L
(PID.TID 0000.0001) SETDIAG: Allocate 35 x  1 Levels for Diagnostic #  1784 TRAC0M
(PID.TID 0000.0001) SETDIAG: Allocate 35 x  1 Levels for Diagnostic #  1796 TRAC0N
(PID.TID 0000.0001) SETDIAG: Allocate 35 x  1 Levels for Diagnostic #  1808 TRAC0O
(PID.TID 0000.0001) SETDIAG: Allocate 35 x  1 Levels for Diagnostic #  1820 TRAC0P
(PID.TID 0000.0001) SETDIAG: Allocate 35 x  1 Levels for Diagnostic #  1832 TRAC0Q
(PID.TID 0000.0001) SETDIAG: Allocate 35 x  1 Levels for Diagnostic #  1844 TRAC0R
(PID.TID 0000.0001) SETDIAG: Allocate 35 x  1 Levels for Diagnostic #  1856 TRAC0S
(PID.TID 0000.0001) SETDIAG: Allocate 35 x  1 Levels for Diagnostic #  1868 TRAC0T
(PID.TID 0000.0001) SETDIAG: Allocate 35 x  1 Levels for Diagnostic #  1880 TRAC0U
(PID.TID 0000.0001) SETDIAG: Allocate 35 x  1 Levels for Diagnostic #  1892 TRAC0V
(PID.TID 0000.0001) SETDIAG: Allocate 35 x  1 Levels for Diagnostic #  1904 TRAC0W
(PID.TID 0000.0001) SETDIAG: Allocate 35 x  1 Levels for Diagnostic #  1916 TRAC0X
(PID.TID 0000.0001) SETDIAG: Allocate 35 x  1 Levels for Diagnostic #  1928 TRAC0Y
(PID.TID 0000.0001) SETDIAG: Allocate 35 x  1 Levels for Diagnostic #  1940 TRAC0Z
(PID.TID 0000.0001) SETDIAG: Allocate 35 x  1 Levels for Diagnostic #  1952 TRAC1a
(PID.TID 0000.0001) SETDIAG: Allocate 35 x  1 Levels for Diagnostic #  1964 TRAC1b
(PID.TID 0000.0001) SETDIAG: Allocate 35 x  1 Levels for Diagnostic #  1976 TRAC1c
(PID.TID 0000.0001) SETDIAG: Allocate 35 x  1 Levels for Diagnostic #  1988 TRAC1d
(PID.TID 0000.0001) SETDIAG: Allocate 35 x  1 Levels for Diagnostic #  2000 TRAC1e
(PID.TID 0000.0001) SETDIAG: Allocate 35 x  1 Levels for Diagnostic #  2012 TRAC1f
(PID.TID 0000.0001) SETDIAG: Allocate 35 x  1 Levels for Diagnostic #  2024 TRAC1g
(PID.TID 0000.0001) SETDIAG: Allocate 35 x  1 Levels for Diagnostic #  2036 TRAC1h
(PID.TID 0000.0001) SETDIAG: Allocate 35 x  1 Levels for Diagnostic #  2048 TRAC1i
(PID.TID 0000.0001) SETDIAG: Allocate 35 x  1 Levels for Diagnostic #  2060 TRAC1j
(PID.TID 0000.0001) SETDIAG: Allocate 35 x  1 Levels for Diagnostic #  2072 TRAC1k
(PID.TID 0000.0001) SETDIAG: Allocate 35 x  1 Levels for Diagnostic #  2084 TRAC1l
(PID.TID 0000.0001) SETDIAG: Allocate 35 x  1 Levels for Diagnostic #  2096 TRAC1m
(PID.TID 0000.0001) SETDIAG: Allocate 35 x  1 Levels for Diagnostic #  2108 TRAC1n
(PID.TID 0000.0001) SETDIAG: Allocate 35 x  1 Levels for Diagnostic #  2120 TRAC1o
(PID.TID 0000.0001) SETDIAG: Allocate 35 x  1 Levels for Diagnostic #  2132 TRAC1p
(PID.TID 0000.0001) SETDIAG: Allocate 35 x  1 Levels for Diagnostic #  2144 TRAC1q
(PID.TID 0000.0001) SETDIAG: Allocate 35 x  1 Levels for Diagnostic #  2156 TRAC1r
(PID.TID 0000.0001) SETDIAG: Allocate 35 x  1 Levels for Diagnostic #  2168 TRAC1s
(PID.TID 0000.0001) SETDIAG: Allocate 35 x  1 Levels for Diagnostic #  2180 TRAC1t
(PID.TID 0000.0001) SETDIAG: Allocate 35 x  1 Levels for Diagnostic #  2192 TRAC1u
(PID.TID 0000.0001) SETDIAG: Allocate 35 x  1 Levels for Diagnostic #  2204 TRAC1v
(PID.TID 0000.0001) SETDIAG: Allocate 35 x  1 Levels for Diagnostic #  2216 TRAC1w
(PID.TID 0000.0001) SETDIAG: Allocate 35 x  1 Levels for Diagnostic #  2228 TRAC1x
(PID.TID 0000.0001) SETDIAG: Allocate 35 x  1 Levels for Diagnostic #  2245 PAR01
(PID.TID 0000.0001) SETDIAG: Allocate 35 x  1 Levels for Diagnostic #  2252 DIC_c01
(PID.TID 0000.0001) SETDIAG: Allocate 35 x  1 Levels for Diagnostic #  2263 DIC_c02
(PID.TID 0000.0001) SETDIAG: Allocate 35 x  1 Levels for Diagnostic #  2253 c01_DOC
(PID.TID 0000.0001) SETDIAG: Allocate 35 x  1 Levels for Diagnostic #  2264 c02_DOC
(PID.TID 0000.0001) SETDIAG: Allocate 35 x  1 Levels for Diagnostic #  2254 c01_POC
(PID.TID 0000.0001) SETDIAG: Allocate 35 x  1 Levels for Diagnostic #  2265 c02_POC
(PID.TID 0000.0001) SETDIAG: Allocate 35 x  1 Levels for Diagnostic #  2244 PARF
(PID.TID 0000.0001) SETDIAG: Allocate 35 x  1 Levels for Diagnostic #  2241 atten
(PID.TID 0000.0001) SETDIAG: Allocate 35 x  1 Levels for Diagnostic #  2243 surfPAR
(PID.TID 0000.0001) SETDIAG: Allocate 35 x  1 Levels for Diagnostic #  2242 exfPAR
(PID.TID 0000.0001) SETDIAG: Allocate 35 x  1 Levels for Diagnostic #  2246 limn01
(PID.TID 0000.0001) SETDIAG: Allocate 35 x  1 Levels for Diagnostic #  2247 limp01
(PID.TID 0000.0001) SETDIAG: Allocate 35 x  1 Levels for Diagnostic #  2248 limsi01
(PID.TID 0000.0001) SETDIAG: Allocate 35 x  1 Levels for Diagnostic #  2249 limfe01
(PID.TID 0000.0001) SETDIAG: Allocate 35 x  1 Levels for Diagnostic #  2250 limI01
(PID.TID 0000.0001) SETDIAG: Allocate 35 x  1 Levels for Diagnostic #  2251 limT01
(PID.TID 0000.0001) SETDIAG: Allocate 35 x  1 Levels for Diagnostic #  2255 c01_c
(PID.TID 0000.0001) SETDIAG: Allocate 35 x  1 Levels for Diagnostic #  2266 c02_c
(PID.TID 0000.0001) SETDIAG: Allocate 35 x  1 Levels for Diagnostic #  2278 c_c03
(PID.TID 0000.0001) SETDIAG: Allocate 35 x  1 Levels for Diagnostic #  2289 c_c04
(PID.TID 0000.0001) SETDIAG: Allocate 35 x  1 Levels for Diagnostic #  3126 c_DOC
(PID.TID 0000.0001) SETDIAG: Allocate 35 x  1 Levels for Diagnostic #  3127 c_POC
(PID.TID 0000.0001) SETDIAG: Allocate 35 x  1 Levels for Diagnostic #  3128 c_PIC
(PID.TID 0000.0001) SETDIAG: Allocate 35 x  1 Levels for Diagnostic #  3129 n_DON
(PID.TID 0000.0001) SETDIAG: Allocate 35 x  1 Levels for Diagnostic #  3130 n_PON
(PID.TID 0000.0001) SETDIAG: Allocate 35 x  1 Levels for Diagnostic #  3131 p_DOP
(PID.TID 0000.0001) SETDIAG: Allocate 35 x  1 Levels for Diagnostic #  3132 p_POP
(PID.TID 0000.0001)   space allocated for all diagnostics:    7105 levels
(PID.TID 0000.0001) DIAGNOSTICS_SET_POINTERS: Set levels for Outp.Stream: darwin
(PID.TID 0000.0001)  Levels:       1.   2.   3.   4.   5.   6.   7.   8.   9.  10.  11.  12.  13.  14.  15.  16.  17.  18.  19.  20.
(PID.TID 0000.0001)  Levels:      21.  22.  23.  24.  25.  26.  27.  28.  29.  30.  31.  32.  33.  34.  35.
(PID.TID 0000.0001) DIAGNOSTICS_SET_POINTERS: done
(PID.TID 0000.0001) ------------------------------------------------------------
(PID.TID 0000.0001) DIAGSTATS_SET_REGIONS: define no region
(PID.TID 0000.0001) ------------------------------------------------------------
(PID.TID 0000.0001)   space allocated for all stats-diags:       0 levels
(PID.TID 0000.0001) DIAGSTATS_SET_POINTERS: done
(PID.TID 0000.0001) ------------------------------------------------------------
(PID.TID 0000.0001) %MON fCori_max                    =  -4.38556766452100497E-05
(PID.TID 0000.0001) %MON fCori_min                    =  -4.38556766452100497E-05
(PID.TID 0000.0001) %MON fCori_mean                   =  -4.38556766452100497E-05
(PID.TID 0000.0001) %MON fCori_sd                     =   0.00000000000000000E+00
(PID.TID 0000.0001) %MON fCoriG_max                   =  -4.50678018366247268E-05
(PID.TID 0000.0001) %MON fCoriG_min                   =  -4.50678018366247268E-05
(PID.TID 0000.0001) %MON fCoriG_mean                  =  -4.50678018366247268E-05
(PID.TID 0000.0001) %MON fCoriG_sd                    =   0.00000000000000000E+00
(PID.TID 0000.0001) %MON fCoriCos_max                 =   1.39092436102069932E-04
(PID.TID 0000.0001) %MON fCoriCos_min                 =   1.39092436102069932E-04
(PID.TID 0000.0001) %MON fCoriCos_mean                =   1.39092436102069932E-04
(PID.TID 0000.0001) %MON fCoriCos_sd                  =   0.00000000000000000E+00
(PID.TID 0000.0001) INI_CG2D: CG2D normalisation factor =  2.7288038648017932E-04
(PID.TID 0000.0001) 
(PID.TID 0000.0001) // =======================================================
(PID.TID 0000.0001) // Model configuration
(PID.TID 0000.0001) // =======================================================
(PID.TID 0000.0001) //
(PID.TID 0000.0001) // "Physical" paramters ( PARM01 in namelist )
(PID.TID 0000.0001) //
(PID.TID 0000.0001) buoyancyRelation = /* Type of relation to get Buoyancy */
(PID.TID 0000.0001)               'OCEANIC'
(PID.TID 0000.0001)     ;
(PID.TID 0000.0001) fluidIsAir   =  /* fluid major constituent is Air */
(PID.TID 0000.0001)                   F
(PID.TID 0000.0001)     ;
(PID.TID 0000.0001) fluidIsWater =  /* fluid major constituent is Water */
(PID.TID 0000.0001)                   T
(PID.TID 0000.0001)     ;
(PID.TID 0000.0001) usingPCoords =  /* use p (or p*) vertical coordinate */
(PID.TID 0000.0001)                   F
(PID.TID 0000.0001)     ;
(PID.TID 0000.0001) usingZCoords =  /* use z (or z*) vertical coordinate */
(PID.TID 0000.0001)                   T
(PID.TID 0000.0001)     ;
(PID.TID 0000.0001) tRef =   /* Reference temperature profile ( oC or K ) */
(PID.TID 0000.0001)                 2.650000000000000E+01,      /* K =  1 */
(PID.TID 0000.0001)                 2.610000000000000E+01,      /* K =  2 */
(PID.TID 0000.0001)                 2.600000000000000E+01,      /* K =  3 */
(PID.TID 0000.0001)                 2.550000000000000E+01,      /* K =  4 */
(PID.TID 0000.0001)                 2.540000000000000E+01,      /* K =  5 */
(PID.TID 0000.0001)                 2.490000000000000E+01,      /* K =  6 */
(PID.TID 0000.0001)                 2.450000000000000E+01,      /* K =  7 */
(PID.TID 0000.0001)                 2.400000000000000E+01,      /* K =  8 */
(PID.TID 0000.0001)                 2.370000000000000E+01,      /* K =  9 */
(PID.TID 0000.0001)                 2.330000000000000E+01,      /* K = 10 */
(PID.TID 0000.0001)                 2.310000000000000E+01,      /* K = 11 */
(PID.TID 0000.0001)                 2.280000000000000E+01,      /* K = 12 */
(PID.TID 0000.0001)                 2.250000000000000E+01,      /* K = 13 */
(PID.TID 0000.0001)                 2.210000000000000E+01,      /* K = 14 */
(PID.TID 0000.0001)                 2.160000000000000E+01,      /* K = 15 */
(PID.TID 0000.0001)                 2.060000000000000E+01,      /* K = 16 */
(PID.TID 0000.0001)                 1.950000000000000E+01,      /* K = 17 */
(PID.TID 0000.0001)                 1.840000000000000E+01,      /* K = 18 */
(PID.TID 0000.0001)                 1.730000000000000E+01,      /* K = 19 */
(PID.TID 0000.0001)                 1.660000000000000E+01,      /* K = 20 */
(PID.TID 0000.0001)                 1.550000000000000E+01,      /* K = 21 */
(PID.TID 0000.0001)                 1.460000000000000E+01,      /* K = 22 */
(PID.TID 0000.0001)                 1.380000000000000E+01,      /* K = 23 */
(PID.TID 0000.0001)                 1.310000000000000E+01,      /* K = 24 */
(PID.TID 0000.0001)                 1.160000000000000E+01,      /* K = 25 */
(PID.TID 0000.0001)                 1.010000000000000E+01,      /* K = 26 */
(PID.TID 0000.0001)                 7.700000000000000E+00,      /* K = 27 */
(PID.TID 0000.0001)                 5.300000000000000E+00,      /* K = 28 */
(PID.TID 0000.0001)                 4.100000000000000E+00,      /* K = 29 */
(PID.TID 0000.0001)     2 @  3.700000000000000E+00,             /* K = 30: 31 */
(PID.TID 0000.0001)                 3.400000000000000E+00,      /* K = 32 */
(PID.TID 0000.0001)                 3.000000000000000E+00,      /* K = 33 */
(PID.TID 0000.0001)                 2.800000000000000E+00,      /* K = 34 */
(PID.TID 0000.0001)                 2.600000000000000E+00       /* K = 35 */
(PID.TID 0000.0001)     ;
(PID.TID 0000.0001) sRef =   /* Reference salinity profile ( psu ) */
(PID.TID 0000.0001)    35 @  3.500000000000000E+01              /* K =  1: 35 */
(PID.TID 0000.0001)     ;
(PID.TID 0000.0001) viscAh  =   /* Lateral eddy viscosity ( m^2/s ) */
(PID.TID 0000.0001)                 0.000000000000000E+00
(PID.TID 0000.0001)     ;
(PID.TID 0000.0001) viscAhMax = /* Maximum lateral eddy viscosity ( m^2/s ) */
(PID.TID 0000.0001)                 1.000000000000000E+21
(PID.TID 0000.0001)     ;
(PID.TID 0000.0001) viscAhGrid = /* Grid dependent lateral eddy viscosity ( non-dim. ) */
(PID.TID 0000.0001)                 0.000000000000000E+00
(PID.TID 0000.0001)     ;
(PID.TID 0000.0001) useFullLeith = /* Use Full Form of Leith Viscosity on/off flag*/
(PID.TID 0000.0001)                   F
(PID.TID 0000.0001)     ;
(PID.TID 0000.0001) useStrainTensionVisc= /* Use StrainTension Form of Viscous Operator flag*/
(PID.TID 0000.0001)                   F
(PID.TID 0000.0001)     ;
(PID.TID 0000.0001) useAreaViscLength = /* Use area for visc length instead of geom. mean*/
(PID.TID 0000.0001)                   F
(PID.TID 0000.0001)     ;
(PID.TID 0000.0001) viscC2leith = /* Leith harmonic visc. factor (on grad(vort),non-dim.) */
(PID.TID 0000.0001)                 0.000000000000000E+00
(PID.TID 0000.0001)     ;
(PID.TID 0000.0001) viscC2leithD = /* Leith harmonic viscosity factor (on grad(div),non-dim.)*/
(PID.TID 0000.0001)                 0.000000000000000E+00
(PID.TID 0000.0001)     ;
(PID.TID 0000.0001) viscC2smag = /* Smagorinsky harmonic viscosity factor (non-dim.) */
(PID.TID 0000.0001)                 0.000000000000000E+00
(PID.TID 0000.0001)     ;
(PID.TID 0000.0001) viscA4  =   /* Lateral biharmonic viscosity ( m^4/s ) */
(PID.TID 0000.0001)                 0.000000000000000E+00
(PID.TID 0000.0001)     ;
(PID.TID 0000.0001) viscA4Max = /* Maximum biharmonic viscosity ( m^2/s ) */
(PID.TID 0000.0001)                 1.000000000000000E+21
(PID.TID 0000.0001)     ;
(PID.TID 0000.0001) viscA4Grid = /* Grid dependent biharmonic viscosity ( non-dim. ) */
(PID.TID 0000.0001)                 0.000000000000000E+00
(PID.TID 0000.0001)     ;
(PID.TID 0000.0001) viscC4leith = /* Leith biharm viscosity factor (on grad(vort), non-dim.)*/
(PID.TID 0000.0001)                 0.000000000000000E+00
(PID.TID 0000.0001)     ;
(PID.TID 0000.0001) viscC4leithD = /* Leith biharm viscosity factor (on grad(div), non-dim.) */
(PID.TID 0000.0001)                 0.000000000000000E+00
(PID.TID 0000.0001)     ;
(PID.TID 0000.0001) viscC4Smag = /* Smagorinsky biharm viscosity factor (non-dim) */
(PID.TID 0000.0001)                 0.000000000000000E+00
(PID.TID 0000.0001)     ;
(PID.TID 0000.0001) no_slip_sides =  /* Viscous BCs: No-slip sides */
(PID.TID 0000.0001)                   F
(PID.TID 0000.0001)     ;
(PID.TID 0000.0001) sideDragFactor = /* side-drag scaling factor (non-dim) */
(PID.TID 0000.0001)                 2.000000000000000E+00
(PID.TID 0000.0001)     ;
(PID.TID 0000.0001) viscArNr = /* vertical profile of vertical viscosity ( m^2/s )*/
(PID.TID 0000.0001)    35 @  0.000000000000000E+00              /* K =  1: 35 */
(PID.TID 0000.0001)     ;
(PID.TID 0000.0001) no_slip_bottom =  /* Viscous BCs: No-slip bottom */
(PID.TID 0000.0001)                   T
(PID.TID 0000.0001)     ;
(PID.TID 0000.0001) bottomDragLinear = /* linear bottom-drag coefficient ( m/s ) */
(PID.TID 0000.0001)                 0.000000000000000E+00
(PID.TID 0000.0001)     ;
(PID.TID 0000.0001) bottomDragQuadratic = /* quadratic bottom-drag coefficient (-) */
(PID.TID 0000.0001)                 0.000000000000000E+00
(PID.TID 0000.0001)     ;
(PID.TID 0000.0001) diffKhT =   /* Laplacian diffusion of heat laterally ( m^2/s ) */
(PID.TID 0000.0001)                 1.000000000000000E+02
(PID.TID 0000.0001)     ;
(PID.TID 0000.0001) diffK4T =   /* Biharmonic diffusion of heat laterally ( m^4/s ) */
(PID.TID 0000.0001)                 0.000000000000000E+00
(PID.TID 0000.0001)     ;
(PID.TID 0000.0001) diffKhS =   /* Laplacian diffusion of salt laterally ( m^2/s ) */
(PID.TID 0000.0001)                 0.000000000000000E+00
(PID.TID 0000.0001)     ;
(PID.TID 0000.0001) diffK4S =   /* Biharmonic diffusion of salt laterally ( m^4/s ) */
(PID.TID 0000.0001)                 0.000000000000000E+00
(PID.TID 0000.0001)     ;
(PID.TID 0000.0001) diffKrNrT = /* vertical profile of vertical diffusion of Temp ( m^2/s )*/
(PID.TID 0000.0001)    35 @  1.000000000000000E-04              /* K =  1: 35 */
(PID.TID 0000.0001)     ;
(PID.TID 0000.0001) diffKrNrS = /* vertical profile of vertical diffusion of Salt ( m^2/s )*/
(PID.TID 0000.0001)    35 @  0.000000000000000E+00              /* K =  1: 35 */
(PID.TID 0000.0001)     ;
(PID.TID 0000.0001) diffKrBL79surf = /* Surface diffusion for Bryan and Lewis 79 ( m^2/s ) */
(PID.TID 0000.0001)                 0.000000000000000E+00
(PID.TID 0000.0001)     ;
(PID.TID 0000.0001) diffKrBL79deep = /* Deep diffusion for Bryan and Lewis 1979 ( m^2/s ) */
(PID.TID 0000.0001)                 0.000000000000000E+00
(PID.TID 0000.0001)     ;
(PID.TID 0000.0001) diffKrBL79scl = /* Depth scale for Bryan and Lewis 1979 ( m ) */
(PID.TID 0000.0001)                 2.000000000000000E+02
(PID.TID 0000.0001)     ;
(PID.TID 0000.0001) diffKrBL79Ho = /* Turning depth for Bryan and Lewis 1979 ( m ) */
(PID.TID 0000.0001)                -2.000000000000000E+03
(PID.TID 0000.0001)     ;
(PID.TID 0000.0001) ivdc_kappa = /* Implicit Vertical Diffusivity for Convection ( m^2/s) */
(PID.TID 0000.0001)                 0.000000000000000E+00
(PID.TID 0000.0001)     ;
(PID.TID 0000.0001) hMixCriteria=  /* Criteria for mixed-layer diagnostic */
(PID.TID 0000.0001)                -8.000000000000000E-01
(PID.TID 0000.0001)     ;
(PID.TID 0000.0001) dRhoSmall =  /* Parameter for mixed-layer diagnostic */
(PID.TID 0000.0001)                 1.000000000000000E-06
(PID.TID 0000.0001)     ;
(PID.TID 0000.0001) hMixSmooth=  /* Smoothing parameter for mixed-layer diagnostic */
(PID.TID 0000.0001)                 0.000000000000000E+00
(PID.TID 0000.0001)     ;
(PID.TID 0000.0001) eosType =  /* Type of Equation of State */
(PID.TID 0000.0001)               'JMD95Z'
(PID.TID 0000.0001)     ;
(PID.TID 0000.0001) celsius2K = /* 0 degree Celsius converted to Kelvin ( K ) */
(PID.TID 0000.0001)                 2.731500000000000E+02
(PID.TID 0000.0001)     ;
(PID.TID 0000.0001) rhoConst  = /* Reference density (Boussinesq)  ( kg/m^3 ) */
(PID.TID 0000.0001)                 9.998000000000000E+02
(PID.TID 0000.0001)     ;
(PID.TID 0000.0001) rhoFacC = /* normalized Reference density @ cell-Center (-) */
(PID.TID 0000.0001)    35 @  1.000000000000000E+00              /* K =  1: 35 */
(PID.TID 0000.0001)     ;
(PID.TID 0000.0001) rhoFacF = /* normalized Reference density @ W-Interface (-) */
(PID.TID 0000.0001)    36 @  1.000000000000000E+00              /* K =  1: 36 */
(PID.TID 0000.0001)     ;
(PID.TID 0000.0001) rhoConstFresh = /* Fresh-water reference density ( kg/m^3 ) */
(PID.TID 0000.0001)                 9.998000000000000E+02
(PID.TID 0000.0001)     ;
(PID.TID 0000.0001) gravity =   /* Gravitational acceleration ( m/s^2 ) */
(PID.TID 0000.0001)                 9.810000000000000E+00
(PID.TID 0000.0001)     ;
(PID.TID 0000.0001) gBaro =   /* Barotropic gravity ( m/s^2 ) */
(PID.TID 0000.0001)                 9.810000000000000E+00
(PID.TID 0000.0001)     ;
(PID.TID 0000.0001) rotationPeriod =   /* Rotation Period ( s ) */
(PID.TID 0000.0001)                 8.616400000000000E+04
(PID.TID 0000.0001)     ;
(PID.TID 0000.0001) omega =   /* Angular velocity ( rad/s ) */
(PID.TID 0000.0001)                 7.292123516990375E-05
(PID.TID 0000.0001)     ;
(PID.TID 0000.0001) f0 =   /* Reference coriolis parameter ( 1/s ) */
(PID.TID 0000.0001)                 1.000000000000000E-04
(PID.TID 0000.0001)     ;
(PID.TID 0000.0001) beta =   /* Beta ( 1/(m.s) ) */
(PID.TID 0000.0001)                 9.999999999999999E-12
(PID.TID 0000.0001)     ;
(PID.TID 0000.0001) fPrime =   /* Second coriolis parameter ( 1/s ) */
(PID.TID 0000.0001)                 0.000000000000000E+00
(PID.TID 0000.0001)     ;
(PID.TID 0000.0001) rigidLid =   /* Rigid lid on/off flag */
(PID.TID 0000.0001)                   T
(PID.TID 0000.0001)     ;
(PID.TID 0000.0001) implicitFreeSurface =   /* Implicit free surface on/off flag */
(PID.TID 0000.0001)                   F
(PID.TID 0000.0001)     ;
(PID.TID 0000.0001) freeSurfFac =   /* Implicit free surface factor */
(PID.TID 0000.0001)                 0.000000000000000E+00
(PID.TID 0000.0001)     ;
(PID.TID 0000.0001) implicSurfPress =  /* Surface Pressure implicit factor (0-1)*/
(PID.TID 0000.0001)                 1.000000000000000E+00
(PID.TID 0000.0001)     ;
(PID.TID 0000.0001) implicDiv2Dflow =  /* Barot. Flow Div. implicit factor (0-1)*/
(PID.TID 0000.0001)                 1.000000000000000E+00
(PID.TID 0000.0001)     ;
(PID.TID 0000.0001) uniformLin_PhiSurf = /* use uniform Bo_surf on/off flag*/
(PID.TID 0000.0001)                   T
(PID.TID 0000.0001)     ;
(PID.TID 0000.0001) uniformFreeSurfLev = /* free-surface level-index is uniform */
(PID.TID 0000.0001)                   T
(PID.TID 0000.0001)     ;
(PID.TID 0000.0001) hFacMin =   /* minimum partial cell factor (hFac) */
(PID.TID 0000.0001)                 1.000000000000000E+00
(PID.TID 0000.0001)     ;
(PID.TID 0000.0001) hFacMinDr = /* minimum partial cell thickness ( m) */
(PID.TID 0000.0001)                 1.000000000000000E+00
(PID.TID 0000.0001)     ;
(PID.TID 0000.0001) exactConserv =  /* Exact Volume Conservation on/off flag*/
(PID.TID 0000.0001)                   F
(PID.TID 0000.0001)     ;
(PID.TID 0000.0001) linFSConserveTr = /* Tracer correction for Lin Free Surface on/off flag*/
(PID.TID 0000.0001)                   F
(PID.TID 0000.0001)     ;
(PID.TID 0000.0001) nonlinFreeSurf = /* Non-linear Free Surf. options (-1,0,1,2,3)*/
(PID.TID 0000.0001)                       0
(PID.TID 0000.0001)      -1,0= Off ; 1,2,3= On, 2=+rescale gU,gV, 3=+update cg2d solv.
(PID.TID 0000.0001)     ;
(PID.TID 0000.0001) hFacInf =   /* lower threshold for hFac (nonlinFreeSurf only)*/
(PID.TID 0000.0001)                 2.000000000000000E-01
(PID.TID 0000.0001)     ;
(PID.TID 0000.0001) hFacSup =   /* upper threshold for hFac (nonlinFreeSurf only)*/
(PID.TID 0000.0001)                 2.000000000000000E+00
(PID.TID 0000.0001)     ;
(PID.TID 0000.0001) select_rStar = /* r* Vertical coord. options (=0 r coord.; >0 uses r*)*/
(PID.TID 0000.0001)                       0
(PID.TID 0000.0001)     ;
(PID.TID 0000.0001) useRealFreshWaterFlux = /* Real Fresh Water Flux on/off flag*/
(PID.TID 0000.0001)                   F
(PID.TID 0000.0001)     ;
(PID.TID 0000.0001) temp_EvPrRn = /* Temp. of Evap/Prec/R (UNSET=use local T)(oC)*/
(PID.TID 0000.0001)                 1.234567000000000E+05
(PID.TID 0000.0001)     ;
(PID.TID 0000.0001) salt_EvPrRn = /* Salin. of Evap/Prec/R (UNSET=use local S)(psu)*/
(PID.TID 0000.0001)                 0.000000000000000E+00
(PID.TID 0000.0001)     ;
(PID.TID 0000.0001) selectAddFluid = /* option for mass source/sink of fluid (=0: off) */
(PID.TID 0000.0001)                       0
(PID.TID 0000.0001)     ;
(PID.TID 0000.0001) temp_addMass = /* Temp. of addMass array (UNSET=use local T)(oC)*/
(PID.TID 0000.0001)                 1.234567000000000E+05
(PID.TID 0000.0001)     ;
(PID.TID 0000.0001) salt_addMass = /* Salin. of addMass array (UNSET=use local S)(psu)*/
(PID.TID 0000.0001)                 0.000000000000000E+00
(PID.TID 0000.0001)     ;
(PID.TID 0000.0001) convertFW2Salt = /* convert F.W. Flux to Salt Flux (-1=use local S)(psu)*/
(PID.TID 0000.0001)                 3.500000000000000E+01
(PID.TID 0000.0001)     ;
(PID.TID 0000.0001) use3Dsolver = /* use 3-D pressure solver on/off flag */
(PID.TID 0000.0001)                   F
(PID.TID 0000.0001)     ;
(PID.TID 0000.0001) nonHydrostatic =  /* Non-Hydrostatic on/off flag */
(PID.TID 0000.0001)                   F
(PID.TID 0000.0001)     ;
(PID.TID 0000.0001) nh_Am2 = /* Non-Hydrostatic terms scaling factor */
(PID.TID 0000.0001)                 1.000000000000000E+00
(PID.TID 0000.0001)     ;
(PID.TID 0000.0001) implicitNHPress = /* Non-Hyd Pressure implicit factor (0-1)*/
(PID.TID 0000.0001)                 1.000000000000000E+00
(PID.TID 0000.0001)     ;
(PID.TID 0000.0001) selectNHfreeSurf = /* Non-Hyd (free-)Surface option */
(PID.TID 0000.0001)                       0
(PID.TID 0000.0001)     ;
(PID.TID 0000.0001) quasiHydrostatic = /* Quasi-Hydrostatic on/off flag */
(PID.TID 0000.0001)                   F
(PID.TID 0000.0001)     ;
(PID.TID 0000.0001) calc_wVelocity = /* vertical velocity calculation on/off flag */
(PID.TID 0000.0001)                   F
(PID.TID 0000.0001)     ;
(PID.TID 0000.0001) momStepping =  /* Momentum equation on/off flag */
(PID.TID 0000.0001)                   F
(PID.TID 0000.0001)     ;
(PID.TID 0000.0001) vectorInvariantMomentum= /* Vector-Invariant Momentum on/off */
(PID.TID 0000.0001)                   F
(PID.TID 0000.0001)     ;
(PID.TID 0000.0001) momAdvection =  /* Momentum advection on/off flag */
(PID.TID 0000.0001)                   F
(PID.TID 0000.0001)     ;
(PID.TID 0000.0001) momViscosity =  /* Momentum viscosity on/off flag */
(PID.TID 0000.0001)                   F
(PID.TID 0000.0001)     ;
(PID.TID 0000.0001) momImplVertAdv= /* Momentum implicit vert. advection on/off*/
(PID.TID 0000.0001)                   F
(PID.TID 0000.0001)     ;
(PID.TID 0000.0001) implicitViscosity = /* Implicit viscosity on/off flag */
(PID.TID 0000.0001)                   F
(PID.TID 0000.0001)     ;
(PID.TID 0000.0001) metricTerms =  /* metric-Terms on/off flag */
(PID.TID 0000.0001)                   T
(PID.TID 0000.0001)     ;
(PID.TID 0000.0001) useNHMTerms = /* Non-Hydrostatic Metric-Terms on/off */
(PID.TID 0000.0001)                   F
(PID.TID 0000.0001)     ;
(PID.TID 0000.0001) selectCoriMap = /* Coriolis Map options (0,1,2,3)*/
(PID.TID 0000.0001)                       2
(PID.TID 0000.0001)     0= f-Plane ; 1= Beta-Plane ; 2= Spherical ; 3= read from file
(PID.TID 0000.0001)     ;
(PID.TID 0000.0001) use3dCoriolis = /* 3-D Coriolis on/off flag */
(PID.TID 0000.0001)                   F
(PID.TID 0000.0001)     ;
(PID.TID 0000.0001) useCoriolis =  /* Coriolis on/off flag */
(PID.TID 0000.0001)                   F
(PID.TID 0000.0001)     ;
(PID.TID 0000.0001) useCDscheme =  /* CD scheme on/off flag */
(PID.TID 0000.0001)                   F
(PID.TID 0000.0001)     ;
(PID.TID 0000.0001) useEnergyConservingCoriolis= /* Flx-Form Coriolis scheme flag */
(PID.TID 0000.0001)                   F
(PID.TID 0000.0001)     ;
(PID.TID 0000.0001) useJamartWetPoints= /* Coriolis WetPoints method flag */
(PID.TID 0000.0001)                   F
(PID.TID 0000.0001)     ;
(PID.TID 0000.0001) useJamartMomAdv= /* V.I Non-linear terms Jamart flag */
(PID.TID 0000.0001)                   F
(PID.TID 0000.0001)     ;
(PID.TID 0000.0001) useAbsVorticity= /* V.I Works with f+zeta in Coriolis */
(PID.TID 0000.0001)                   F
(PID.TID 0000.0001)     ;
(PID.TID 0000.0001) selectVortScheme= /* V.I Scheme selector for Vorticity-Term */
(PID.TID 0000.0001)               123456789
(PID.TID 0000.0001)    = 0 : enstrophy (Shallow-Water Eq.) conserving scheme by Sadourny, JAS 75
(PID.TID 0000.0001)    = 1 : same as 0 with modified hFac
(PID.TID 0000.0001)    = 2 : energy conserving scheme (used by Sadourny in JAS 75 paper)
(PID.TID 0000.0001)    = 3 : energy (general) and enstrophy (2D, nonDiv.) conserving scheme
(PID.TID 0000.0001)          from Sadourny (Burridge & Haseler, ECMWF Rep.4, 1977)
(PID.TID 0000.0001)     ;
(PID.TID 0000.0001) upwindVorticity= /* V.I Upwind bias vorticity flag */
(PID.TID 0000.0001)                   F
(PID.TID 0000.0001)     ;
(PID.TID 0000.0001) highOrderVorticity= /* V.I High order vort. advect. flag */
(PID.TID 0000.0001)                   F
(PID.TID 0000.0001)     ;
(PID.TID 0000.0001) upwindShear= /* V.I Upwind vertical Shear advection flag */
(PID.TID 0000.0001)                   F
(PID.TID 0000.0001)     ;
(PID.TID 0000.0001) selectKEscheme= /* V.I Kinetic Energy scheme selector */
(PID.TID 0000.0001)                       0
(PID.TID 0000.0001)     ;
(PID.TID 0000.0001) momForcing =  /* Momentum forcing on/off flag */
(PID.TID 0000.0001)                   F
(PID.TID 0000.0001)     ;
(PID.TID 0000.0001) momPressureForcing =  /* Momentum pressure term on/off flag */
(PID.TID 0000.0001)                   F
(PID.TID 0000.0001)     ;
(PID.TID 0000.0001) implicitIntGravWave= /* Implicit Internal Gravity Wave flag */
(PID.TID 0000.0001)                   F
(PID.TID 0000.0001)     ;
(PID.TID 0000.0001) staggerTimeStep =    /* Stagger time stepping on/off flag */
(PID.TID 0000.0001)                   F
(PID.TID 0000.0001)     ;
(PID.TID 0000.0001) doResetHFactors = /* reset thickness factors @ each time-step */
(PID.TID 0000.0001)                   F
(PID.TID 0000.0001)     ;
(PID.TID 0000.0001) multiDimAdvection =  /* enable/disable Multi-Dim Advection */
(PID.TID 0000.0001)                   T
(PID.TID 0000.0001)     ;
(PID.TID 0000.0001) useMultiDimAdvec =   /* Multi-Dim Advection is/is-not used */
(PID.TID 0000.0001)                   T
(PID.TID 0000.0001)     ;
(PID.TID 0000.0001) implicitDiffusion = /* Implicit Diffusion on/off flag */
(PID.TID 0000.0001)                   T
(PID.TID 0000.0001)     ;
(PID.TID 0000.0001) tempStepping =  /* Temperature equation on/off flag */
(PID.TID 0000.0001)                   T
(PID.TID 0000.0001)     ;
(PID.TID 0000.0001) tempAdvection = /* Temperature advection on/off flag */
(PID.TID 0000.0001)                   T
(PID.TID 0000.0001)     ;
(PID.TID 0000.0001) tempImplVertAdv = /* Temp. implicit vert. advection on/off */
(PID.TID 0000.0001)                   F
(PID.TID 0000.0001)     ;
(PID.TID 0000.0001) tempForcing  =  /* Temperature forcing on/off flag */
(PID.TID 0000.0001)                   T
(PID.TID 0000.0001)     ;
(PID.TID 0000.0001) doThetaClimRelax = /* apply SST relaxation on/off flag */
(PID.TID 0000.0001)                   T
(PID.TID 0000.0001)     ;
(PID.TID 0000.0001) tempIsActiveTr = /* Temp. is a dynamically Active Tracer */
(PID.TID 0000.0001)                   F
(PID.TID 0000.0001)     ;
(PID.TID 0000.0001) saltStepping =  /* Salinity equation on/off flag */
(PID.TID 0000.0001)                   F
(PID.TID 0000.0001)     ;
(PID.TID 0000.0001) saltAdvection = /* Salinity advection on/off flag */
(PID.TID 0000.0001)                   F
(PID.TID 0000.0001)     ;
(PID.TID 0000.0001) saltImplVertAdv = /* Sali. implicit vert. advection on/off */
(PID.TID 0000.0001)                   F
(PID.TID 0000.0001)     ;
(PID.TID 0000.0001) saltForcing  =  /* Salinity forcing on/off flag */
(PID.TID 0000.0001)                   F
(PID.TID 0000.0001)     ;
(PID.TID 0000.0001) doSaltClimRelax = /* apply SSS relaxation on/off flag */
(PID.TID 0000.0001)                   F
(PID.TID 0000.0001)     ;
(PID.TID 0000.0001) saltIsActiveTr = /* Salt  is a dynamically Active Tracer */
(PID.TID 0000.0001)                   F
(PID.TID 0000.0001)     ;
(PID.TID 0000.0001)  readBinaryPrec = /* Precision used for reading binary files */
(PID.TID 0000.0001)                      32
(PID.TID 0000.0001)     ;
(PID.TID 0000.0001) writeBinaryPrec = /* Precision used for writing binary files */
(PID.TID 0000.0001)                      64
(PID.TID 0000.0001)     ;
(PID.TID 0000.0001)  globalFiles = /* write "global" (=not per tile) files */
(PID.TID 0000.0001)                   F
(PID.TID 0000.0001)     ;
(PID.TID 0000.0001)  useSingleCpuIO = /* only master MPI process does I/O */
(PID.TID 0000.0001)                   T
(PID.TID 0000.0001)     ;
(PID.TID 0000.0001) /* debLev[*]  : level of debug & auxiliary message printing */
(PID.TID 0000.0001) debLevZero =  0 ; /* level of disabled aux. msg printing */
(PID.TID 0000.0001)    debLevA =  1 ; /* level of minimum  aux. msg printing */
(PID.TID 0000.0001)    debLevB =  2 ; /* level of low aux. print (report read-file opening)*/
(PID.TID 0000.0001)    debLevC =  3 ; /* level of moderate debug prt (most pkgs debug msg) */
(PID.TID 0000.0001)    debLevD =  4 ; /* level of enhanced debug prt (add DEBUG_STATS prt) */
(PID.TID 0000.0001)    debLevE =  5 ; /* level of extensive debug printing */
(PID.TID 0000.0001) debugLevel =  /* select debug printing level */
(PID.TID 0000.0001)                       2
(PID.TID 0000.0001)     ;
(PID.TID 0000.0001) //
(PID.TID 0000.0001) // Elliptic solver(s) paramters ( PARM02 in namelist )
(PID.TID 0000.0001) //
(PID.TID 0000.0001) cg2dMaxIters =   /* Upper limit on 2d con. grad iterations  */
(PID.TID 0000.0001)                     300
(PID.TID 0000.0001)     ;
(PID.TID 0000.0001) cg2dChkResFreq =   /* 2d con. grad convergence test frequency */
(PID.TID 0000.0001)                       1
(PID.TID 0000.0001)     ;
(PID.TID 0000.0001) cg2dUseMinResSol= /* use cg2d last-iter(=0) / min-resid.(=1) solution */
(PID.TID 0000.0001)                       0
(PID.TID 0000.0001)     ;
(PID.TID 0000.0001) cg2dTargetResidual =   /* 2d con. grad target residual  */
(PID.TID 0000.0001)                 1.000000000000000E-07
(PID.TID 0000.0001)     ;
(PID.TID 0000.0001) cg2dTargetResWunit =   /* CG2d target residual [W units] */
(PID.TID 0000.0001)                -1.000000000000000E+00
(PID.TID 0000.0001)     ;
(PID.TID 0000.0001) cg2dPreCondFreq =   /* Freq. for updating cg2d preconditioner */
(PID.TID 0000.0001)                       1
(PID.TID 0000.0001)     ;
(PID.TID 0000.0001) useSRCGSolver =  /* use single reduction CG solver(s) */
(PID.TID 0000.0001)                   F
(PID.TID 0000.0001)     ;
(PID.TID 0000.0001) printResidualFreq = /* Freq. for printing CG residual */
(PID.TID 0000.0001)                       0
(PID.TID 0000.0001)     ;
(PID.TID 0000.0001) //
(PID.TID 0000.0001) // Time stepping paramters ( PARM03 in namelist )
(PID.TID 0000.0001) //
(PID.TID 0000.0001) deltaTMom =   /* Momentum equation timestep ( s ) */
(PID.TID 0000.0001)                 3.600000000000000E+03
(PID.TID 0000.0001)     ;
(PID.TID 0000.0001) deltaTFreeSurf = /* FreeSurface equation timestep ( s ) */
(PID.TID 0000.0001)                 3.600000000000000E+03
(PID.TID 0000.0001)     ;
(PID.TID 0000.0001) dTtracerLev =  /* Tracer equation timestep ( s ) */
(PID.TID 0000.0001)    35 @  3.600000000000000E+03              /* K =  1: 35 */
(PID.TID 0000.0001)     ;
(PID.TID 0000.0001) deltaTClock  =   /* Model clock timestep ( s ) */
(PID.TID 0000.0001)                 3.600000000000000E+03
(PID.TID 0000.0001)     ;
(PID.TID 0000.0001) cAdjFreq =   /* Convective adjustment interval ( s ) */
(PID.TID 0000.0001)                 3.600000000000000E+03
(PID.TID 0000.0001)     ;
(PID.TID 0000.0001) momForcingOutAB = /* =1: take Momentum Forcing out of Adams-Bash. stepping */
(PID.TID 0000.0001)                       0
(PID.TID 0000.0001)     ;
(PID.TID 0000.0001) tracForcingOutAB = /* =1: take T,S,pTr Forcing out of Adams-Bash. stepping */
(PID.TID 0000.0001)                       0
(PID.TID 0000.0001)     ;
(PID.TID 0000.0001) momDissip_In_AB = /* put Dissipation Tendency in Adams-Bash. stepping */
(PID.TID 0000.0001)                   T
(PID.TID 0000.0001)     ;
(PID.TID 0000.0001) doAB_onGtGs = /* apply AB on Tendencies (rather than on T,S)*/
(PID.TID 0000.0001)                   T
(PID.TID 0000.0001)     ;
(PID.TID 0000.0001) abEps =   /* Adams-Bashforth-2 stabilizing weight */
(PID.TID 0000.0001)                 1.000000000000000E-01
(PID.TID 0000.0001)     ;
(PID.TID 0000.0001) pickupStrictlyMatch= /* stop if pickup do not strictly match */
(PID.TID 0000.0001)                   T
(PID.TID 0000.0001)     ;
(PID.TID 0000.0001) nIter0   =   /* Run starting timestep number */
(PID.TID 0000.0001)                       0
(PID.TID 0000.0001)     ;
(PID.TID 0000.0001) nTimeSteps = /* Number of timesteps */
(PID.TID 0000.0001)                       4
(PID.TID 0000.0001)     ;
(PID.TID 0000.0001) nEndIter =   /* Run ending timestep number */
(PID.TID 0000.0001)                       4
(PID.TID 0000.0001)     ;
(PID.TID 0000.0001) baseTime =   /* Model base time ( s ) */
(PID.TID 0000.0001)                 0.000000000000000E+00
(PID.TID 0000.0001)     ;
(PID.TID 0000.0001) startTime =  /* Run start time ( s ) */
(PID.TID 0000.0001)                 0.000000000000000E+00
(PID.TID 0000.0001)     ;
(PID.TID 0000.0001) endTime  =   /* Integration ending time ( s ) */
(PID.TID 0000.0001)                 1.440000000000000E+04
(PID.TID 0000.0001)     ;
(PID.TID 0000.0001) pChkPtFreq = /* Permanent restart/pickup file interval ( s ) */
(PID.TID 0000.0001)                 3.110400000000000E+07
(PID.TID 0000.0001)     ;
(PID.TID 0000.0001) chkPtFreq  = /* Rolling restart/pickup file interval ( s ) */
(PID.TID 0000.0001)                 3.110400000000000E+07
(PID.TID 0000.0001)     ;
(PID.TID 0000.0001) pickup_write_mdsio =   /* Model IO flag. */
(PID.TID 0000.0001)                   T
(PID.TID 0000.0001)     ;
(PID.TID 0000.0001) pickup_read_mdsio =   /* Model IO flag. */
(PID.TID 0000.0001)                   T
(PID.TID 0000.0001)     ;
(PID.TID 0000.0001) pickup_write_mnc =   /* Model IO flag. */
(PID.TID 0000.0001)                   F
(PID.TID 0000.0001)     ;
(PID.TID 0000.0001) pickup_read_mnc =   /* Model IO flag. */
(PID.TID 0000.0001)                   F
(PID.TID 0000.0001)     ;
(PID.TID 0000.0001) pickup_write_immed =   /* Model IO flag. */
(PID.TID 0000.0001)                   F
(PID.TID 0000.0001)     ;
(PID.TID 0000.0001) writePickupAtEnd =   /* Model IO flag. */
(PID.TID 0000.0001)                   T
(PID.TID 0000.0001)     ;
(PID.TID 0000.0001) dumpFreq =   /* Model state write out interval ( s ). */
(PID.TID 0000.0001)                 3.110400000000000E+07
(PID.TID 0000.0001)     ;
(PID.TID 0000.0001) dumpInitAndLast= /* write out Initial & Last iter. model state */
(PID.TID 0000.0001)                   T
(PID.TID 0000.0001)     ;
(PID.TID 0000.0001) snapshot_mdsio =   /* Model IO flag. */
(PID.TID 0000.0001)                   F
(PID.TID 0000.0001)     ;
(PID.TID 0000.0001) snapshot_mnc =   /* Model IO flag. */
(PID.TID 0000.0001)                   T
(PID.TID 0000.0001)     ;
(PID.TID 0000.0001) monitorFreq =   /* Monitor output interval ( s ). */
(PID.TID 0000.0001)                 1.000000000000000E+00
(PID.TID 0000.0001)     ;
(PID.TID 0000.0001) monitorSelect = /* select group of variables to monitor */
(PID.TID 0000.0001)                       3
(PID.TID 0000.0001)     ;
(PID.TID 0000.0001) monitor_stdio =   /* Model IO flag. */
(PID.TID 0000.0001)                   T
(PID.TID 0000.0001)     ;
(PID.TID 0000.0001) monitor_mnc =   /* Model IO flag. */
(PID.TID 0000.0001)                   F
(PID.TID 0000.0001)     ;
(PID.TID 0000.0001) externForcingPeriod =   /* forcing period (s) */
(PID.TID 0000.0001)                 2.592000000000000E+06
(PID.TID 0000.0001)     ;
(PID.TID 0000.0001) externForcingCycle =   /* period of the cyle (s). */
(PID.TID 0000.0001)                 3.110400000000000E+07
(PID.TID 0000.0001)     ;
(PID.TID 0000.0001) tauThetaClimRelax =   /* relaxation time scale (s) */
(PID.TID 0000.0001)                 2.592000000000000E+05
(PID.TID 0000.0001)     ;
(PID.TID 0000.0001) tauSaltClimRelax =   /* relaxation time scale (s) */
(PID.TID 0000.0001)                 0.000000000000000E+00
(PID.TID 0000.0001)     ;
(PID.TID 0000.0001) latBandClimRelax =   /* max. Lat. where relaxation */
(PID.TID 0000.0001)                 1.800000000000000E+02
(PID.TID 0000.0001)     ;
(PID.TID 0000.0001) //
(PID.TID 0000.0001) // Gridding paramters ( PARM04 in namelist )
(PID.TID 0000.0001) //
(PID.TID 0000.0001) usingCartesianGrid = /* Cartesian coordinates flag ( True/False ) */
(PID.TID 0000.0001)                   F
(PID.TID 0000.0001)     ;
(PID.TID 0000.0001) usingCylindricalGrid = /* Cylindrical coordinates flag ( True/False ) */
(PID.TID 0000.0001)                   F
(PID.TID 0000.0001)     ;
(PID.TID 0000.0001) usingSphericalPolarGrid = /* Spherical coordinates flag ( True/False ) */
(PID.TID 0000.0001)                   T
(PID.TID 0000.0001)     ;
(PID.TID 0000.0001) usingCurvilinearGrid = /* Curvilinear coordinates flag ( True/False ) */
(PID.TID 0000.0001)                   F
(PID.TID 0000.0001)     ;
(PID.TID 0000.0001) selectSigmaCoord = /* Hybrid-Sigma Vert. Coordinate option */
(PID.TID 0000.0001)                       0
(PID.TID 0000.0001)     ;
(PID.TID 0000.0001) Ro_SeaLevel = /* r(1) ( units of r ==  m ) */
(PID.TID 0000.0001)                 0.000000000000000E+00
(PID.TID 0000.0001)     ;
(PID.TID 0000.0001) rSigmaBnd = /* r/sigma transition ( units of r ==  m ) */
(PID.TID 0000.0001)                 1.234567000000000E+05
(PID.TID 0000.0001)     ;
(PID.TID 0000.0001) rkSign =   /* index orientation relative to vertical coordinate */
(PID.TID 0000.0001)                -1.000000000000000E+00
(PID.TID 0000.0001)     ;
(PID.TID 0000.0001) gravitySign = /* gravity orientation relative to vertical coordinate */
(PID.TID 0000.0001)                -1.000000000000000E+00
(PID.TID 0000.0001)     ;
(PID.TID 0000.0001) mass2rUnit = /* convert mass per unit area [kg/m2] to r-units [m] */
(PID.TID 0000.0001)                 1.000200040008002E-03
(PID.TID 0000.0001)     ;
(PID.TID 0000.0001) rUnit2mass = /* convert r-units [m] to mass per unit area [kg/m2] */
(PID.TID 0000.0001)                 9.998000000000000E+02
(PID.TID 0000.0001)     ;
(PID.TID 0000.0001) drC =   /* C spacing ( units of r ) */
(PID.TID 0000.0001)                 5.000000000000000E+00,      /* K =  1 */
(PID.TID 0000.0001)    13 @  1.000000000000000E+01,             /* K =  2: 14 */
(PID.TID 0000.0001)                 1.250000000000000E+01,      /* K = 15 */
(PID.TID 0000.0001)     4 @  1.500000000000000E+01,             /* K = 16: 19 */
(PID.TID 0000.0001)                 1.750000000000000E+01,      /* K = 20 */
(PID.TID 0000.0001)     3 @  2.000000000000000E+01,             /* K = 21: 23 */
(PID.TID 0000.0001)                 3.500000000000000E+01,      /* K = 24 */
(PID.TID 0000.0001)                 5.000000000000000E+01,      /* K = 25 */
(PID.TID 0000.0001)                 7.500000000000000E+01,      /* K = 26 */
(PID.TID 0000.0001)                 1.250000000000000E+02,      /* K = 27 */
(PID.TID 0000.0001)                 1.500000000000000E+02,      /* K = 28 */
(PID.TID 0000.0001)                 1.750000000000000E+02,      /* K = 29 */
(PID.TID 0000.0001)                 2.500000000000000E+02,      /* K = 30 */
(PID.TID 0000.0001)                 3.500000000000000E+02,      /* K = 31 */
(PID.TID 0000.0001)     2 @  4.000000000000000E+02,             /* K = 32: 33 */
(PID.TID 0000.0001)                 4.500000000000000E+02,      /* K = 34 */
(PID.TID 0000.0001)                 5.000000000000000E+02       /* K = 35 */
(PID.TID 0000.0001)     ;
(PID.TID 0000.0001) drF =   /* W spacing ( units of r ) */
(PID.TID 0000.0001)    14 @  1.000000000000000E+01,             /* K =  1: 14 */
(PID.TID 0000.0001)     5 @  1.500000000000000E+01,             /* K = 15: 19 */
(PID.TID 0000.0001)     4 @  2.000000000000000E+01,             /* K = 20: 23 */
(PID.TID 0000.0001)     2 @  5.000000000000000E+01,             /* K = 24: 25 */
(PID.TID 0000.0001)                 1.000000000000000E+02,      /* K = 26 */
(PID.TID 0000.0001)     2 @  1.500000000000000E+02,             /* K = 27: 28 */
(PID.TID 0000.0001)                 2.000000000000000E+02,      /* K = 29 */
(PID.TID 0000.0001)                 3.000000000000000E+02,      /* K = 30 */
(PID.TID 0000.0001)     3 @  4.000000000000000E+02,             /* K = 31: 33 */
(PID.TID 0000.0001)     2 @  5.000000000000000E+02              /* K = 34: 35 */
(PID.TID 0000.0001)     ;
(PID.TID 0000.0001) delX = /* U spacing ( m - cartesian, degrees - spherical ) */
(PID.TID 0000.0001)                 1.000000000000000E+00       /* I =  1 */
(PID.TID 0000.0001)     ;
(PID.TID 0000.0001) delY = /* V spacing ( m - cartesian, degrees - spherical ) */
(PID.TID 0000.0001)                 1.000000000000000E+00       /* J =  1 */
(PID.TID 0000.0001)     ;
(PID.TID 0000.0001) xgOrigin = /* X-axis origin of West  edge (cartesian: m, lat-lon: deg) */
(PID.TID 0000.0001)                 3.350000000000000E+02
(PID.TID 0000.0001)     ;
(PID.TID 0000.0001) ygOrigin = /* Y-axis origin of South edge (cartesian: m, lat-lon: deg) */
(PID.TID 0000.0001)                -1.800000000000000E+01
(PID.TID 0000.0001)     ;
(PID.TID 0000.0001) rSphere =  /* Radius ( ignored - cartesian, m - spherical ) */
(PID.TID 0000.0001)                 6.370000000000000E+06
(PID.TID 0000.0001)     ;
(PID.TID 0000.0001) deepAtmosphere = /* Deep/Shallow Atmosphere flag (True/False) */
(PID.TID 0000.0001)                   F
(PID.TID 0000.0001)     ;
(PID.TID 0000.0001) xC =  /* xC(:,1,:,1) : P-point X coord ( deg. or m if cartesian) */
(PID.TID 0000.0001)                 3.355000000000000E+02       /* I =  1 */
(PID.TID 0000.0001)     ;
(PID.TID 0000.0001) yC =  /* yC(1,:,1,:) : P-point Y coord ( deg. or m if cartesian) */
(PID.TID 0000.0001)                -1.750000000000000E+01       /* J =  1 */
(PID.TID 0000.0001)     ;
(PID.TID 0000.0001) rcoord = /* P-point R coordinate (  units of r ) */
(PID.TID 0000.0001)                -5.000000000000000E+00,      /* K =  1 */
(PID.TID 0000.0001)                -1.500000000000000E+01,      /* K =  2 */
(PID.TID 0000.0001)                -2.500000000000000E+01,      /* K =  3 */
(PID.TID 0000.0001)                -3.500000000000000E+01,      /* K =  4 */
(PID.TID 0000.0001)                -4.500000000000000E+01,      /* K =  5 */
(PID.TID 0000.0001)                -5.500000000000000E+01,      /* K =  6 */
(PID.TID 0000.0001)                -6.500000000000000E+01,      /* K =  7 */
(PID.TID 0000.0001)                -7.500000000000000E+01,      /* K =  8 */
(PID.TID 0000.0001)                -8.500000000000000E+01,      /* K =  9 */
(PID.TID 0000.0001)                -9.500000000000000E+01,      /* K = 10 */
(PID.TID 0000.0001)                -1.050000000000000E+02,      /* K = 11 */
(PID.TID 0000.0001)                -1.150000000000000E+02,      /* K = 12 */
(PID.TID 0000.0001)                -1.250000000000000E+02,      /* K = 13 */
(PID.TID 0000.0001)                -1.350000000000000E+02,      /* K = 14 */
(PID.TID 0000.0001)                -1.475000000000000E+02,      /* K = 15 */
(PID.TID 0000.0001)                -1.625000000000000E+02,      /* K = 16 */
(PID.TID 0000.0001)                -1.775000000000000E+02,      /* K = 17 */
(PID.TID 0000.0001)                -1.925000000000000E+02,      /* K = 18 */
(PID.TID 0000.0001)                -2.075000000000000E+02,      /* K = 19 */
(PID.TID 0000.0001)                -2.250000000000000E+02,      /* K = 20 */
(PID.TID 0000.0001)                -2.450000000000000E+02,      /* K = 21 */
(PID.TID 0000.0001)                -2.650000000000000E+02,      /* K = 22 */
(PID.TID 0000.0001)                -2.850000000000000E+02,      /* K = 23 */
(PID.TID 0000.0001)                -3.200000000000000E+02,      /* K = 24 */
(PID.TID 0000.0001)                -3.700000000000000E+02,      /* K = 25 */
(PID.TID 0000.0001)                -4.450000000000000E+02,      /* K = 26 */
(PID.TID 0000.0001)                -5.700000000000000E+02,      /* K = 27 */
(PID.TID 0000.0001)                -7.200000000000000E+02,      /* K = 28 */
(PID.TID 0000.0001)                -8.950000000000000E+02,      /* K = 29 */
(PID.TID 0000.0001)                -1.145000000000000E+03,      /* K = 30 */
(PID.TID 0000.0001)                -1.495000000000000E+03,      /* K = 31 */
(PID.TID 0000.0001)                -1.895000000000000E+03,      /* K = 32 */
(PID.TID 0000.0001)                -2.295000000000000E+03,      /* K = 33 */
(PID.TID 0000.0001)                -2.745000000000000E+03,      /* K = 34 */
(PID.TID 0000.0001)                -3.245000000000000E+03       /* K = 35 */
(PID.TID 0000.0001)     ;
(PID.TID 0000.0001) rF =   /* W-Interf. R coordinate (  units of r ) */
(PID.TID 0000.0001)                 0.000000000000000E+00,      /* K =  1 */
(PID.TID 0000.0001)                -1.000000000000000E+01,      /* K =  2 */
(PID.TID 0000.0001)                -2.000000000000000E+01,      /* K =  3 */
(PID.TID 0000.0001)                -3.000000000000000E+01,      /* K =  4 */
(PID.TID 0000.0001)                -4.000000000000000E+01,      /* K =  5 */
(PID.TID 0000.0001)                -5.000000000000000E+01,      /* K =  6 */
(PID.TID 0000.0001)                -6.000000000000000E+01,      /* K =  7 */
(PID.TID 0000.0001)                -7.000000000000000E+01,      /* K =  8 */
(PID.TID 0000.0001)                -8.000000000000000E+01,      /* K =  9 */
(PID.TID 0000.0001)                -9.000000000000000E+01,      /* K = 10 */
(PID.TID 0000.0001)                -1.000000000000000E+02,      /* K = 11 */
(PID.TID 0000.0001)                -1.100000000000000E+02,      /* K = 12 */
(PID.TID 0000.0001)                -1.200000000000000E+02,      /* K = 13 */
(PID.TID 0000.0001)                -1.300000000000000E+02,      /* K = 14 */
(PID.TID 0000.0001)                -1.400000000000000E+02,      /* K = 15 */
(PID.TID 0000.0001)                -1.550000000000000E+02,      /* K = 16 */
(PID.TID 0000.0001)                -1.700000000000000E+02,      /* K = 17 */
(PID.TID 0000.0001)                -1.850000000000000E+02,      /* K = 18 */
(PID.TID 0000.0001)                -2.000000000000000E+02,      /* K = 19 */
(PID.TID 0000.0001)                -2.150000000000000E+02,      /* K = 20 */
(PID.TID 0000.0001)                -2.350000000000000E+02,      /* K = 21 */
(PID.TID 0000.0001)                -2.550000000000000E+02,      /* K = 22 */
(PID.TID 0000.0001)                -2.750000000000000E+02,      /* K = 23 */
(PID.TID 0000.0001)                -2.950000000000000E+02,      /* K = 24 */
(PID.TID 0000.0001)                -3.450000000000000E+02,      /* K = 25 */
(PID.TID 0000.0001)                -3.950000000000000E+02,      /* K = 26 */
(PID.TID 0000.0001)                -4.950000000000000E+02,      /* K = 27 */
(PID.TID 0000.0001)                -6.450000000000000E+02,      /* K = 28 */
(PID.TID 0000.0001)                -7.950000000000000E+02,      /* K = 29 */
(PID.TID 0000.0001)                -9.950000000000000E+02,      /* K = 30 */
(PID.TID 0000.0001)                -1.295000000000000E+03,      /* K = 31 */
(PID.TID 0000.0001)                -1.695000000000000E+03,      /* K = 32 */
(PID.TID 0000.0001)                -2.095000000000000E+03,      /* K = 33 */
(PID.TID 0000.0001)                -2.495000000000000E+03,      /* K = 34 */
(PID.TID 0000.0001)                -2.995000000000000E+03,      /* K = 35 */
(PID.TID 0000.0001)                -3.495000000000000E+03       /* K = 36 */
(PID.TID 0000.0001)     ;
(PID.TID 0000.0001) deepFacC = /* deep-model grid factor @ cell-Center (-) */
(PID.TID 0000.0001)    35 @  1.000000000000000E+00              /* K =  1: 35 */
(PID.TID 0000.0001)     ;
(PID.TID 0000.0001) deepFacF = /* deep-model grid factor @ W-Interface (-) */
(PID.TID 0000.0001)    36 @  1.000000000000000E+00              /* K =  1: 36 */
(PID.TID 0000.0001)     ;
(PID.TID 0000.0001) rVel2wUnit = /* convert units: rVel -> wSpeed (=1 if z-coord)*/
(PID.TID 0000.0001)    36 @  1.000000000000000E+00              /* K =  1: 36 */
(PID.TID 0000.0001)     ;
(PID.TID 0000.0001) wUnit2rVel = /* convert units: wSpeed -> rVel (=1 if z-coord)*/
(PID.TID 0000.0001)    36 @  1.000000000000000E+00              /* K =  1: 36 */
(PID.TID 0000.0001)     ;
(PID.TID 0000.0001) dBdrRef = /* Vertical grad. of reference buoyancy [(m/s/r)^2] */
(PID.TID 0000.0001)                 0.000000000000000E+00,      /* K =  1 */
(PID.TID 0000.0001)                 1.232578190459821E-04,      /* K =  2 */
(PID.TID 0000.0001)                 3.063957957303617E-05,      /* K =  3 */
(PID.TID 0000.0001)                 1.521320422054373E-04,      /* K =  4 */
(PID.TID 0000.0001)                 3.021271930223580E-05,      /* K =  5 */
(PID.TID 0000.0001)                 1.499903428890670E-04,      /* K =  6 */
(PID.TID 0000.0001)                 1.186737265074332E-04,      /* K =  7 */
(PID.TID 0000.0001)                 1.466841384627423E-04,      /* K =  8 */
(PID.TID 0000.0001)                 8.712618931102987E-05,      /* K =  9 */
(PID.TID 0000.0001)                 1.151380441308261E-04,      /* K = 10 */
(PID.TID 0000.0001)                 5.712979717883684E-05,      /* K = 11 */
(PID.TID 0000.0001)                 8.515049872565506E-05,      /* K = 12 */
(PID.TID 0000.0001)                 8.448721842774896E-05,      /* K = 13 */
(PID.TID 0000.0001)                 1.116043428725511E-04,      /* K = 14 */
(PID.TID 0000.0001)                 1.102373809396796E-04,      /* K = 15 */
(PID.TID 0000.0001)                 1.798828639202717E-04,      /* K = 16 */
(PID.TID 0000.0001)                 1.918102676980872E-04,      /* K = 17 */
(PID.TID 0000.0001)                 1.853506120896664E-04,      /* K = 18 */
(PID.TID 0000.0001)                 1.787791674911888E-04,      /* K = 19 */
(PID.TID 0000.0001)                 9.455522998141848E-05,      /* K = 20 */
(PID.TID 0000.0001)                 1.259231836379978E-04,      /* K = 21 */
(PID.TID 0000.0001)                 9.923620256554768E-05,      /* K = 22 */
(PID.TID 0000.0001)                 8.531935398693722E-05,      /* K = 23 */
(PID.TID 0000.0001)                 4.137475825384700E-05,      /* K = 24 */
(PID.TID 0000.0001)                 5.930109718499171E-05,      /* K = 25 */
(PID.TID 0000.0001)                 3.689739454308316E-05,      /* K = 26 */
(PID.TID 0000.0001)                 3.215311288275425E-05,      /* K = 27 */
(PID.TID 0000.0001)                 2.340106578013931E-05,      /* K = 28 */
(PID.TID 0000.0001)                 8.957465806881803E-06,      /* K = 29 */
(PID.TID 0000.0001)                 2.029141226789735E-06,      /* K = 30 */
(PID.TID 0000.0001)                 0.000000000000000E+00,      /* K = 31 */
(PID.TID 0000.0001)                 1.052869956707729E-06,      /* K = 32 */
(PID.TID 0000.0001)                 1.465965950004292E-06,      /* K = 33 */
(PID.TID 0000.0001)                 6.817081889333135E-07,      /* K = 34 */
(PID.TID 0000.0001)                 6.544800624285541E-07       /* K = 35 */
(PID.TID 0000.0001)     ;
(PID.TID 0000.0001) rotateGrid = /* use rotated grid ( True/False ) */
(PID.TID 0000.0001)                   F
(PID.TID 0000.0001)     ;
(PID.TID 0000.0001) phiEuler = /* Euler angle, rotation about original z-coordinate [rad] */
(PID.TID 0000.0001)                 0.000000000000000E+00
(PID.TID 0000.0001)     ;
(PID.TID 0000.0001) thetaEuler = /* Euler angle, rotation about new x-coordinate [rad] */
(PID.TID 0000.0001)                 0.000000000000000E+00
(PID.TID 0000.0001)     ;
(PID.TID 0000.0001) psiEuler = /* Euler angle, rotation about new z-coordinate [rad] */
(PID.TID 0000.0001)                 0.000000000000000E+00
(PID.TID 0000.0001)     ;
(PID.TID 0000.0001) dxF =  /* dxF(:,1,:,1) ( units: m ) */
(PID.TID 0000.0001)                 1.060318408771987E+05       /* I =  1 */
(PID.TID 0000.0001)     ;
(PID.TID 0000.0001) dxF =  /* dxF(1,:,1,:) ( units: m ) */
(PID.TID 0000.0001)                 1.060318408771987E+05       /* J =  1 */
(PID.TID 0000.0001)     ;
(PID.TID 0000.0001) dyF =  /* dyF(:,1,:,1) ( units: m ) */
(PID.TID 0000.0001)                 1.111774733520388E+05       /* I =  1 */
(PID.TID 0000.0001)     ;
(PID.TID 0000.0001) dyF =  /* dyF(1,:,1,:) ( units: m ) */
(PID.TID 0000.0001)                 1.111774733520388E+05       /* J =  1 */
(PID.TID 0000.0001)     ;
(PID.TID 0000.0001) dxG =  /* dxG(:,1,:,1) ( units: m ) */
(PID.TID 0000.0001)                 1.057360604966873E+05       /* I =  1 */
(PID.TID 0000.0001)     ;
(PID.TID 0000.0001) dxG =  /* dxG(1,:,1,:) ( units: m ) */
(PID.TID 0000.0001)                 1.057360604966873E+05       /* J =  1 */
(PID.TID 0000.0001)     ;
(PID.TID 0000.0001) dyG =  /* dyG(:,1,:,1) ( units: m ) */
(PID.TID 0000.0001)                 1.111774733520388E+05       /* I =  1 */
(PID.TID 0000.0001)     ;
(PID.TID 0000.0001) dyG =  /* dyG(1,:,1,:) ( units: m ) */
(PID.TID 0000.0001)                 1.111774733520388E+05       /* J =  1 */
(PID.TID 0000.0001)     ;
(PID.TID 0000.0001) dxC =  /* dxC(:,1,:,1) ( units: m ) */
(PID.TID 0000.0001)                 1.060318408771987E+05       /* I =  1 */
(PID.TID 0000.0001)     ;
(PID.TID 0000.0001) dxC =  /* dxC(1,:,1,:) ( units: m ) */
(PID.TID 0000.0001)                 1.060318408771987E+05       /* J =  1 */
(PID.TID 0000.0001)     ;
(PID.TID 0000.0001) dyC =  /* dyC(:,1,:,1) ( units: m ) */
(PID.TID 0000.0001)                 1.111774733520388E+05       /* I =  1 */
(PID.TID 0000.0001)     ;
(PID.TID 0000.0001) dyC =  /* dyC(1,:,1,:) ( units: m ) */
(PID.TID 0000.0001)                 1.111774733520388E+05       /* J =  1 */
(PID.TID 0000.0001)     ;
(PID.TID 0000.0001) dxV =  /* dxV(:,1,:,1) ( units: m ) */
(PID.TID 0000.0001)                 1.057360604966873E+05       /* I =  1 */
(PID.TID 0000.0001)     ;
(PID.TID 0000.0001) dxV =  /* dxV(1,:,1,:) ( units: m ) */
(PID.TID 0000.0001)                 1.057360604966873E+05       /* J =  1 */
(PID.TID 0000.0001)     ;
(PID.TID 0000.0001) dyU =  /* dyU(:,1,:,1) ( units: m ) */
(PID.TID 0000.0001)                 1.111774733520388E+05       /* I =  1 */
(PID.TID 0000.0001)     ;
(PID.TID 0000.0001) dyU =  /* dyU(1,:,1,:) ( units: m ) */
(PID.TID 0000.0001)                 1.111774733520388E+05       /* J =  1 */
(PID.TID 0000.0001)     ;
(PID.TID 0000.0001) rA  =  /* rA (:,1,:,1) ( units: m^2 ) */
(PID.TID 0000.0001)                 1.178820254176956E+10       /* I =  1 */
(PID.TID 0000.0001)     ;
(PID.TID 0000.0001) rA  =  /* rA (1,:,1,:) ( units: m^2 ) */
(PID.TID 0000.0001)                 1.178820254176956E+10       /* J =  1 */
(PID.TID 0000.0001)     ;
(PID.TID 0000.0001) rAw =  /* rAw(:,1,:,1) ( units: m^2 ) */
(PID.TID 0000.0001)                 1.178820254176956E+10       /* I =  1 */
(PID.TID 0000.0001)     ;
(PID.TID 0000.0001) rAw =  /* rAw(1,:,1,:) ( units: m^2 ) */
(PID.TID 0000.0001)                 1.178820254176956E+10       /* J =  1 */
(PID.TID 0000.0001)     ;
(PID.TID 0000.0001) rAs =  /* rAs(:,1,:,1) ( units: m^2 ) */
(PID.TID 0000.0001)                 1.175531884377377E+10       /* I =  1 */
(PID.TID 0000.0001)     ;
(PID.TID 0000.0001) rAs =  /* rAs(1,:,1,:) ( units: m^2 ) */
(PID.TID 0000.0001)                 1.175531884377377E+10       /* J =  1 */
(PID.TID 0000.0001)     ;
(PID.TID 0000.0001) globalArea = /* Integrated horizontal Area (m^2) */
(PID.TID 0000.0001)                 1.178820254176956E+10
(PID.TID 0000.0001)     ;
(PID.TID 0000.0001) // =======================================================
(PID.TID 0000.0001) // End of Model config. summary
(PID.TID 0000.0001) // =======================================================
(PID.TID 0000.0001) 
(PID.TID 0000.0001) == Packages configuration : Check & print summary ==
(PID.TID 0000.0001) 
(PID.TID 0000.0001) PTRACERS_CHECK: #define ALLOW_PTRACERS
(PID.TID 0000.0001) PTRACERS_CHECK: updated GAD_OlMinSize=  2  0  1
(PID.TID 0000.0001) // ===================================
(PID.TID 0000.0001) // PTRACERS parameters
(PID.TID 0000.0001) // ===================================
(PID.TID 0000.0001) PTRACERS_numInUse = /* number of tracers */
(PID.TID 0000.0001)                     175
(PID.TID 0000.0001)     ;
(PID.TID 0000.0001) PTRACERS_Iter0 = /* timestep number when tracers are initialized */
(PID.TID 0000.0001)                       0
(PID.TID 0000.0001)     ;
(PID.TID 0000.0001) PTRACERS_startAllTrc =/* all tracers start @ startTime */
(PID.TID 0000.0001)                   T
(PID.TID 0000.0001)     ;
(PID.TID 0000.0001) PTRACERS_addSrelax2EmP =/* add Salt relaxation to EmP */
(PID.TID 0000.0001)                   F
(PID.TID 0000.0001)     ;
(PID.TID 0000.0001) PTRACERS_dTLev =   /* Ptracer timestep ( s ) */
(PID.TID 0000.0001)    35 @  3.600000000000000E+03              /* K =  1: 35 */
(PID.TID 0000.0001)     ;
(PID.TID 0000.0001) PTRACERS_dumpFreq = /* Frequency^-1 for snapshot output (s) */
(PID.TID 0000.0001)                 3.110400000000000E+07
(PID.TID 0000.0001)     ;
(PID.TID 0000.0001) PTRACERS_taveFreq = /* Frequency^-1 for time-Aver. output (s) */
(PID.TID 0000.0001)                 2.592000000000000E+06
(PID.TID 0000.0001)     ;
(PID.TID 0000.0001) PTRACERS_useRecords = /* all tracers in 1 file */
(PID.TID 0000.0001)                   F
(PID.TID 0000.0001)     ;
(PID.TID 0000.0001) PTRACERS_timeave_mnc = /* use MNC for Tave output */
(PID.TID 0000.0001)                   T
(PID.TID 0000.0001)     ;
(PID.TID 0000.0001) PTRACERS_snapshot_mnc = /* use MNC for snapshot output */
(PID.TID 0000.0001)                   T
(PID.TID 0000.0001)     ;
(PID.TID 0000.0001) PTRACERS_pickup_write_mnc = /* use MNC for writing pickups */
(PID.TID 0000.0001)                   F
(PID.TID 0000.0001)     ;
(PID.TID 0000.0001) PTRACERS_pickup_read_mnc = /* use MNC for reading pickups */
(PID.TID 0000.0001)                   F
(PID.TID 0000.0001)     ;
(PID.TID 0000.0001)  -----------------------------------
(PID.TID 0000.0001)  tracer number :    1
(PID.TID 0000.0001) PTRACERS_names = /* Tracer short name */
(PID.TID 0000.0001)               'DIC'
(PID.TID 0000.0001)     ;
(PID.TID 0000.0001) PTRACERS_long_names = /* Tracer long name */
(PID.TID 0000.0001)               ''
(PID.TID 0000.0001)     ;
(PID.TID 0000.0001) PTRACERS_ioLabel = /* tracer IO Label */
(PID.TID 0000.0001)               '01'
(PID.TID 0000.0001)     ;
(PID.TID 0000.0001) PTRACERS_advScheme = /* Advection Scheme */
(PID.TID 0000.0001)                      33
(PID.TID 0000.0001)     ;
(PID.TID 0000.0001) PTRACERS_SOM_Advection = /* tracer uses SOM advection scheme */
(PID.TID 0000.0001)                   F
(PID.TID 0000.0001)     ;
(PID.TID 0000.0001) PTRACERS_ImplVertAdv = /* implicit vert. advection flag */
(PID.TID 0000.0001)                   F
(PID.TID 0000.0001)     ;
(PID.TID 0000.0001) PTRACERS_diffKh = /* Laplacian Diffusivity */
(PID.TID 0000.0001)                 0.000000000000000E+00
(PID.TID 0000.0001)     ;
(PID.TID 0000.0001) PTRACERS_diffK4 = /* Biharmonic Diffusivity */
(PID.TID 0000.0001)                 0.000000000000000E+00
(PID.TID 0000.0001)     ;
(PID.TID 0000.0001) PTRACERS_diffKrNr = /* Vertical Diffusivity */
(PID.TID 0000.0001)    35 @  1.000000000000000E-05              /* K =  1: 35 */
(PID.TID 0000.0001)     ;
(PID.TID 0000.0001) PTRACERS_useGMRedi = /* apply GM-Redi */
(PID.TID 0000.0001)                   F
(PID.TID 0000.0001)     ;
(PID.TID 0000.0001) PTRACERS_useDWNSLP = /* apply DOWN-SLOPE Flow */
(PID.TID 0000.0001)                   F
(PID.TID 0000.0001)     ;
(PID.TID 0000.0001) PTRACERS_useKPP = /* apply KPP scheme */
(PID.TID 0000.0001)                   F
(PID.TID 0000.0001)     ;
(PID.TID 0000.0001) PTRACERS_ref = /* Reference vertical profile */
(PID.TID 0000.0001)    35 @  2.000000000000000E+03              /* K =  1: 35 */
(PID.TID 0000.0001)     ;
(PID.TID 0000.0001) PTRACERS_EvPrRn =/* tracer conc. in Evap. & Rain */
(PID.TID 0000.0001)                 1.234567000000000E+05
(PID.TID 0000.0001)     ;
(PID.TID 0000.0001)  -----------------------------------
(PID.TID 0000.0001)  tracer number :    2
(PID.TID 0000.0001) PTRACERS_names = /* Tracer short name */
(PID.TID 0000.0001)               'NH4'
(PID.TID 0000.0001)     ;
(PID.TID 0000.0001) PTRACERS_long_names = /* Tracer long name */
(PID.TID 0000.0001)               ''
(PID.TID 0000.0001)     ;
(PID.TID 0000.0001) PTRACERS_ioLabel = /* tracer IO Label */
(PID.TID 0000.0001)               '02'
(PID.TID 0000.0001)     ;
(PID.TID 0000.0001) PTRACERS_advScheme = /* Advection Scheme */
(PID.TID 0000.0001)                      33
(PID.TID 0000.0001)     ;
(PID.TID 0000.0001) PTRACERS_SOM_Advection = /* tracer uses SOM advection scheme */
(PID.TID 0000.0001)                   F
(PID.TID 0000.0001)     ;
(PID.TID 0000.0001) PTRACERS_ImplVertAdv = /* implicit vert. advection flag */
(PID.TID 0000.0001)                   F
(PID.TID 0000.0001)     ;
(PID.TID 0000.0001) PTRACERS_diffKh = /* Laplacian Diffusivity */
(PID.TID 0000.0001)                 0.000000000000000E+00
(PID.TID 0000.0001)     ;
(PID.TID 0000.0001) PTRACERS_diffK4 = /* Biharmonic Diffusivity */
(PID.TID 0000.0001)                 0.000000000000000E+00
(PID.TID 0000.0001)     ;
(PID.TID 0000.0001) PTRACERS_diffKrNr = /* Vertical Diffusivity */
(PID.TID 0000.0001)    35 @  1.000000000000000E-05              /* K =  1: 35 */
(PID.TID 0000.0001)     ;
(PID.TID 0000.0001) PTRACERS_useGMRedi = /* apply GM-Redi */
(PID.TID 0000.0001)                   F
(PID.TID 0000.0001)     ;
(PID.TID 0000.0001) PTRACERS_useDWNSLP = /* apply DOWN-SLOPE Flow */
(PID.TID 0000.0001)                   F
(PID.TID 0000.0001)     ;
(PID.TID 0000.0001) PTRACERS_useKPP = /* apply KPP scheme */
(PID.TID 0000.0001)                   F
(PID.TID 0000.0001)     ;
(PID.TID 0000.0001) PTRACERS_ref = /* Reference vertical profile */
(PID.TID 0000.0001)    35 @  0.000000000000000E+00              /* K =  1: 35 */
(PID.TID 0000.0001)     ;
(PID.TID 0000.0001) PTRACERS_EvPrRn =/* tracer conc. in Evap. & Rain */
(PID.TID 0000.0001)                 1.234567000000000E+05
(PID.TID 0000.0001)     ;
(PID.TID 0000.0001)  -----------------------------------
(PID.TID 0000.0001)  tracer number :    3
(PID.TID 0000.0001) PTRACERS_names = /* Tracer short name */
(PID.TID 0000.0001)               'NO2'
(PID.TID 0000.0001)     ;
(PID.TID 0000.0001) PTRACERS_long_names = /* Tracer long name */
(PID.TID 0000.0001)               ''
(PID.TID 0000.0001)     ;
(PID.TID 0000.0001) PTRACERS_ioLabel = /* tracer IO Label */
(PID.TID 0000.0001)               '03'
(PID.TID 0000.0001)     ;
(PID.TID 0000.0001) PTRACERS_advScheme = /* Advection Scheme */
(PID.TID 0000.0001)                      33
(PID.TID 0000.0001)     ;
(PID.TID 0000.0001) PTRACERS_SOM_Advection = /* tracer uses SOM advection scheme */
(PID.TID 0000.0001)                   F
(PID.TID 0000.0001)     ;
(PID.TID 0000.0001) PTRACERS_ImplVertAdv = /* implicit vert. advection flag */
(PID.TID 0000.0001)                   F
(PID.TID 0000.0001)     ;
(PID.TID 0000.0001) PTRACERS_diffKh = /* Laplacian Diffusivity */
(PID.TID 0000.0001)                 0.000000000000000E+00
(PID.TID 0000.0001)     ;
(PID.TID 0000.0001) PTRACERS_diffK4 = /* Biharmonic Diffusivity */
(PID.TID 0000.0001)                 0.000000000000000E+00
(PID.TID 0000.0001)     ;
(PID.TID 0000.0001) PTRACERS_diffKrNr = /* Vertical Diffusivity */
(PID.TID 0000.0001)    35 @  1.000000000000000E-05              /* K =  1: 35 */
(PID.TID 0000.0001)     ;
(PID.TID 0000.0001) PTRACERS_useGMRedi = /* apply GM-Redi */
(PID.TID 0000.0001)                   F
(PID.TID 0000.0001)     ;
(PID.TID 0000.0001) PTRACERS_useDWNSLP = /* apply DOWN-SLOPE Flow */
(PID.TID 0000.0001)                   F
(PID.TID 0000.0001)     ;
(PID.TID 0000.0001) PTRACERS_useKPP = /* apply KPP scheme */
(PID.TID 0000.0001)                   F
(PID.TID 0000.0001)     ;
(PID.TID 0000.0001) PTRACERS_ref = /* Reference vertical profile */
(PID.TID 0000.0001)    35 @  0.000000000000000E+00              /* K =  1: 35 */
(PID.TID 0000.0001)     ;
(PID.TID 0000.0001) PTRACERS_EvPrRn =/* tracer conc. in Evap. & Rain */
(PID.TID 0000.0001)                 1.234567000000000E+05
(PID.TID 0000.0001)     ;
(PID.TID 0000.0001)  -----------------------------------
(PID.TID 0000.0001)  tracer number :    4
(PID.TID 0000.0001) PTRACERS_names = /* Tracer short name */
(PID.TID 0000.0001)               'NO3'
(PID.TID 0000.0001)     ;
(PID.TID 0000.0001) PTRACERS_long_names = /* Tracer long name */
(PID.TID 0000.0001)               ''
(PID.TID 0000.0001)     ;
(PID.TID 0000.0001) PTRACERS_ioLabel = /* tracer IO Label */
(PID.TID 0000.0001)               '04'
(PID.TID 0000.0001)     ;
(PID.TID 0000.0001) PTRACERS_advScheme = /* Advection Scheme */
(PID.TID 0000.0001)                      33
(PID.TID 0000.0001)     ;
(PID.TID 0000.0001) PTRACERS_SOM_Advection = /* tracer uses SOM advection scheme */
(PID.TID 0000.0001)                   F
(PID.TID 0000.0001)     ;
(PID.TID 0000.0001) PTRACERS_ImplVertAdv = /* implicit vert. advection flag */
(PID.TID 0000.0001)                   F
(PID.TID 0000.0001)     ;
(PID.TID 0000.0001) PTRACERS_diffKh = /* Laplacian Diffusivity */
(PID.TID 0000.0001)                 0.000000000000000E+00
(PID.TID 0000.0001)     ;
(PID.TID 0000.0001) PTRACERS_diffK4 = /* Biharmonic Diffusivity */
(PID.TID 0000.0001)                 0.000000000000000E+00
(PID.TID 0000.0001)     ;
(PID.TID 0000.0001) PTRACERS_diffKrNr = /* Vertical Diffusivity */
(PID.TID 0000.0001)    35 @  1.000000000000000E-05              /* K =  1: 35 */
(PID.TID 0000.0001)     ;
(PID.TID 0000.0001) PTRACERS_useGMRedi = /* apply GM-Redi */
(PID.TID 0000.0001)                   F
(PID.TID 0000.0001)     ;
(PID.TID 0000.0001) PTRACERS_useDWNSLP = /* apply DOWN-SLOPE Flow */
(PID.TID 0000.0001)                   F
(PID.TID 0000.0001)     ;
(PID.TID 0000.0001) PTRACERS_useKPP = /* apply KPP scheme */
(PID.TID 0000.0001)                   F
(PID.TID 0000.0001)     ;
(PID.TID 0000.0001) PTRACERS_ref = /* Reference vertical profile */
(PID.TID 0000.0001)    35 @  0.000000000000000E+00              /* K =  1: 35 */
(PID.TID 0000.0001)     ;
(PID.TID 0000.0001) PTRACERS_EvPrRn =/* tracer conc. in Evap. & Rain */
(PID.TID 0000.0001)                 1.234567000000000E+05
(PID.TID 0000.0001)     ;
(PID.TID 0000.0001)  -----------------------------------
(PID.TID 0000.0001)  tracer number :    5
(PID.TID 0000.0001) PTRACERS_names = /* Tracer short name */
(PID.TID 0000.0001)               'PO4'
(PID.TID 0000.0001)     ;
(PID.TID 0000.0001) PTRACERS_long_names = /* Tracer long name */
(PID.TID 0000.0001)               ''
(PID.TID 0000.0001)     ;
(PID.TID 0000.0001) PTRACERS_ioLabel = /* tracer IO Label */
(PID.TID 0000.0001)               '05'
(PID.TID 0000.0001)     ;
(PID.TID 0000.0001) PTRACERS_advScheme = /* Advection Scheme */
(PID.TID 0000.0001)                      33
(PID.TID 0000.0001)     ;
(PID.TID 0000.0001) PTRACERS_SOM_Advection = /* tracer uses SOM advection scheme */
(PID.TID 0000.0001)                   F
(PID.TID 0000.0001)     ;
(PID.TID 0000.0001) PTRACERS_ImplVertAdv = /* implicit vert. advection flag */
(PID.TID 0000.0001)                   F
(PID.TID 0000.0001)     ;
(PID.TID 0000.0001) PTRACERS_diffKh = /* Laplacian Diffusivity */
(PID.TID 0000.0001)                 0.000000000000000E+00
(PID.TID 0000.0001)     ;
(PID.TID 0000.0001) PTRACERS_diffK4 = /* Biharmonic Diffusivity */
(PID.TID 0000.0001)                 0.000000000000000E+00
(PID.TID 0000.0001)     ;
(PID.TID 0000.0001) PTRACERS_diffKrNr = /* Vertical Diffusivity */
(PID.TID 0000.0001)    35 @  1.000000000000000E-05              /* K =  1: 35 */
(PID.TID 0000.0001)     ;
(PID.TID 0000.0001) PTRACERS_useGMRedi = /* apply GM-Redi */
(PID.TID 0000.0001)                   F
(PID.TID 0000.0001)     ;
(PID.TID 0000.0001) PTRACERS_useDWNSLP = /* apply DOWN-SLOPE Flow */
(PID.TID 0000.0001)                   F
(PID.TID 0000.0001)     ;
(PID.TID 0000.0001) PTRACERS_useKPP = /* apply KPP scheme */
(PID.TID 0000.0001)                   F
(PID.TID 0000.0001)     ;
(PID.TID 0000.0001) PTRACERS_ref = /* Reference vertical profile */
(PID.TID 0000.0001)    35 @  0.000000000000000E+00              /* K =  1: 35 */
(PID.TID 0000.0001)     ;
(PID.TID 0000.0001) PTRACERS_EvPrRn =/* tracer conc. in Evap. & Rain */
(PID.TID 0000.0001)                 1.234567000000000E+05
(PID.TID 0000.0001)     ;
(PID.TID 0000.0001)  -----------------------------------
(PID.TID 0000.0001)  tracer number :    6
(PID.TID 0000.0001) PTRACERS_names = /* Tracer short name */
(PID.TID 0000.0001)               'SiO2'
(PID.TID 0000.0001)     ;
(PID.TID 0000.0001) PTRACERS_long_names = /* Tracer long name */
(PID.TID 0000.0001)               ''
(PID.TID 0000.0001)     ;
(PID.TID 0000.0001) PTRACERS_ioLabel = /* tracer IO Label */
(PID.TID 0000.0001)               '06'
(PID.TID 0000.0001)     ;
(PID.TID 0000.0001) PTRACERS_advScheme = /* Advection Scheme */
(PID.TID 0000.0001)                      33
(PID.TID 0000.0001)     ;
(PID.TID 0000.0001) PTRACERS_SOM_Advection = /* tracer uses SOM advection scheme */
(PID.TID 0000.0001)                   F
(PID.TID 0000.0001)     ;
(PID.TID 0000.0001) PTRACERS_ImplVertAdv = /* implicit vert. advection flag */
(PID.TID 0000.0001)                   F
(PID.TID 0000.0001)     ;
(PID.TID 0000.0001) PTRACERS_diffKh = /* Laplacian Diffusivity */
(PID.TID 0000.0001)                 0.000000000000000E+00
(PID.TID 0000.0001)     ;
(PID.TID 0000.0001) PTRACERS_diffK4 = /* Biharmonic Diffusivity */
(PID.TID 0000.0001)                 0.000000000000000E+00
(PID.TID 0000.0001)     ;
(PID.TID 0000.0001) PTRACERS_diffKrNr = /* Vertical Diffusivity */
(PID.TID 0000.0001)    35 @  1.000000000000000E-05              /* K =  1: 35 */
(PID.TID 0000.0001)     ;
(PID.TID 0000.0001) PTRACERS_useGMRedi = /* apply GM-Redi */
(PID.TID 0000.0001)                   F
(PID.TID 0000.0001)     ;
(PID.TID 0000.0001) PTRACERS_useDWNSLP = /* apply DOWN-SLOPE Flow */
(PID.TID 0000.0001)                   F
(PID.TID 0000.0001)     ;
(PID.TID 0000.0001) PTRACERS_useKPP = /* apply KPP scheme */
(PID.TID 0000.0001)                   F
(PID.TID 0000.0001)     ;
(PID.TID 0000.0001) PTRACERS_ref = /* Reference vertical profile */
(PID.TID 0000.0001)    35 @  0.000000000000000E+00              /* K =  1: 35 */
(PID.TID 0000.0001)     ;
(PID.TID 0000.0001) PTRACERS_EvPrRn =/* tracer conc. in Evap. & Rain */
(PID.TID 0000.0001)                 1.234567000000000E+05
(PID.TID 0000.0001)     ;
(PID.TID 0000.0001)  -----------------------------------
(PID.TID 0000.0001)  tracer number :    7
(PID.TID 0000.0001) PTRACERS_names = /* Tracer short name */
(PID.TID 0000.0001)               'FeT'
(PID.TID 0000.0001)     ;
(PID.TID 0000.0001) PTRACERS_long_names = /* Tracer long name */
(PID.TID 0000.0001)               ''
(PID.TID 0000.0001)     ;
(PID.TID 0000.0001) PTRACERS_ioLabel = /* tracer IO Label */
(PID.TID 0000.0001)               '07'
(PID.TID 0000.0001)     ;
(PID.TID 0000.0001) PTRACERS_advScheme = /* Advection Scheme */
(PID.TID 0000.0001)                      33
(PID.TID 0000.0001)     ;
(PID.TID 0000.0001) PTRACERS_SOM_Advection = /* tracer uses SOM advection scheme */
(PID.TID 0000.0001)                   F
(PID.TID 0000.0001)     ;
(PID.TID 0000.0001) PTRACERS_ImplVertAdv = /* implicit vert. advection flag */
(PID.TID 0000.0001)                   F
(PID.TID 0000.0001)     ;
(PID.TID 0000.0001) PTRACERS_diffKh = /* Laplacian Diffusivity */
(PID.TID 0000.0001)                 0.000000000000000E+00
(PID.TID 0000.0001)     ;
(PID.TID 0000.0001) PTRACERS_diffK4 = /* Biharmonic Diffusivity */
(PID.TID 0000.0001)                 0.000000000000000E+00
(PID.TID 0000.0001)     ;
(PID.TID 0000.0001) PTRACERS_diffKrNr = /* Vertical Diffusivity */
(PID.TID 0000.0001)    35 @  1.000000000000000E-05              /* K =  1: 35 */
(PID.TID 0000.0001)     ;
(PID.TID 0000.0001) PTRACERS_useGMRedi = /* apply GM-Redi */
(PID.TID 0000.0001)                   F
(PID.TID 0000.0001)     ;
(PID.TID 0000.0001) PTRACERS_useDWNSLP = /* apply DOWN-SLOPE Flow */
(PID.TID 0000.0001)                   F
(PID.TID 0000.0001)     ;
(PID.TID 0000.0001) PTRACERS_useKPP = /* apply KPP scheme */
(PID.TID 0000.0001)                   F
(PID.TID 0000.0001)     ;
(PID.TID 0000.0001) PTRACERS_ref = /* Reference vertical profile */
(PID.TID 0000.0001)    35 @  0.000000000000000E+00              /* K =  1: 35 */
(PID.TID 0000.0001)     ;
(PID.TID 0000.0001) PTRACERS_EvPrRn =/* tracer conc. in Evap. & Rain */
(PID.TID 0000.0001)                 1.234567000000000E+05
(PID.TID 0000.0001)     ;
(PID.TID 0000.0001)  -----------------------------------
(PID.TID 0000.0001)  tracer number :    8
(PID.TID 0000.0001) PTRACERS_names = /* Tracer short name */
(PID.TID 0000.0001)               'DOC'
(PID.TID 0000.0001)     ;
(PID.TID 0000.0001) PTRACERS_long_names = /* Tracer long name */
(PID.TID 0000.0001)               ''
(PID.TID 0000.0001)     ;
(PID.TID 0000.0001) PTRACERS_ioLabel = /* tracer IO Label */
(PID.TID 0000.0001)               '08'
(PID.TID 0000.0001)     ;
(PID.TID 0000.0001) PTRACERS_advScheme = /* Advection Scheme */
(PID.TID 0000.0001)                      33
(PID.TID 0000.0001)     ;
(PID.TID 0000.0001) PTRACERS_SOM_Advection = /* tracer uses SOM advection scheme */
(PID.TID 0000.0001)                   F
(PID.TID 0000.0001)     ;
(PID.TID 0000.0001) PTRACERS_ImplVertAdv = /* implicit vert. advection flag */
(PID.TID 0000.0001)                   F
(PID.TID 0000.0001)     ;
(PID.TID 0000.0001) PTRACERS_diffKh = /* Laplacian Diffusivity */
(PID.TID 0000.0001)                 0.000000000000000E+00
(PID.TID 0000.0001)     ;
(PID.TID 0000.0001) PTRACERS_diffK4 = /* Biharmonic Diffusivity */
(PID.TID 0000.0001)                 0.000000000000000E+00
(PID.TID 0000.0001)     ;
(PID.TID 0000.0001) PTRACERS_diffKrNr = /* Vertical Diffusivity */
(PID.TID 0000.0001)    35 @  1.000000000000000E-05              /* K =  1: 35 */
(PID.TID 0000.0001)     ;
(PID.TID 0000.0001) PTRACERS_useGMRedi = /* apply GM-Redi */
(PID.TID 0000.0001)                   F
(PID.TID 0000.0001)     ;
(PID.TID 0000.0001) PTRACERS_useDWNSLP = /* apply DOWN-SLOPE Flow */
(PID.TID 0000.0001)                   F
(PID.TID 0000.0001)     ;
(PID.TID 0000.0001) PTRACERS_useKPP = /* apply KPP scheme */
(PID.TID 0000.0001)                   F
(PID.TID 0000.0001)     ;
(PID.TID 0000.0001) PTRACERS_ref = /* Reference vertical profile */
(PID.TID 0000.0001)    35 @  0.000000000000000E+00              /* K =  1: 35 */
(PID.TID 0000.0001)     ;
(PID.TID 0000.0001) PTRACERS_EvPrRn =/* tracer conc. in Evap. & Rain */
(PID.TID 0000.0001)                 1.234567000000000E+05
(PID.TID 0000.0001)     ;
(PID.TID 0000.0001)  -----------------------------------
(PID.TID 0000.0001)  tracer number :    9
(PID.TID 0000.0001) PTRACERS_names = /* Tracer short name */
(PID.TID 0000.0001)               'DON'
(PID.TID 0000.0001)     ;
(PID.TID 0000.0001) PTRACERS_long_names = /* Tracer long name */
(PID.TID 0000.0001)               ''
(PID.TID 0000.0001)     ;
(PID.TID 0000.0001) PTRACERS_ioLabel = /* tracer IO Label */
(PID.TID 0000.0001)               '09'
(PID.TID 0000.0001)     ;
(PID.TID 0000.0001) PTRACERS_advScheme = /* Advection Scheme */
(PID.TID 0000.0001)                      33
(PID.TID 0000.0001)     ;
(PID.TID 0000.0001) PTRACERS_SOM_Advection = /* tracer uses SOM advection scheme */
(PID.TID 0000.0001)                   F
(PID.TID 0000.0001)     ;
(PID.TID 0000.0001) PTRACERS_ImplVertAdv = /* implicit vert. advection flag */
(PID.TID 0000.0001)                   F
(PID.TID 0000.0001)     ;
(PID.TID 0000.0001) PTRACERS_diffKh = /* Laplacian Diffusivity */
(PID.TID 0000.0001)                 0.000000000000000E+00
(PID.TID 0000.0001)     ;
(PID.TID 0000.0001) PTRACERS_diffK4 = /* Biharmonic Diffusivity */
(PID.TID 0000.0001)                 0.000000000000000E+00
(PID.TID 0000.0001)     ;
(PID.TID 0000.0001) PTRACERS_diffKrNr = /* Vertical Diffusivity */
(PID.TID 0000.0001)    35 @  1.000000000000000E-05              /* K =  1: 35 */
(PID.TID 0000.0001)     ;
(PID.TID 0000.0001) PTRACERS_useGMRedi = /* apply GM-Redi */
(PID.TID 0000.0001)                   F
(PID.TID 0000.0001)     ;
(PID.TID 0000.0001) PTRACERS_useDWNSLP = /* apply DOWN-SLOPE Flow */
(PID.TID 0000.0001)                   F
(PID.TID 0000.0001)     ;
(PID.TID 0000.0001) PTRACERS_useKPP = /* apply KPP scheme */
(PID.TID 0000.0001)                   F
(PID.TID 0000.0001)     ;
(PID.TID 0000.0001) PTRACERS_ref = /* Reference vertical profile */
(PID.TID 0000.0001)    35 @  0.000000000000000E+00              /* K =  1: 35 */
(PID.TID 0000.0001)     ;
(PID.TID 0000.0001) PTRACERS_EvPrRn =/* tracer conc. in Evap. & Rain */
(PID.TID 0000.0001)                 1.234567000000000E+05
(PID.TID 0000.0001)     ;
(PID.TID 0000.0001)  -----------------------------------
(PID.TID 0000.0001)  tracer number :   10
(PID.TID 0000.0001) PTRACERS_names = /* Tracer short name */
(PID.TID 0000.0001)               'DOP'
(PID.TID 0000.0001)     ;
(PID.TID 0000.0001) PTRACERS_long_names = /* Tracer long name */
(PID.TID 0000.0001)               ''
(PID.TID 0000.0001)     ;
(PID.TID 0000.0001) PTRACERS_ioLabel = /* tracer IO Label */
(PID.TID 0000.0001)               '10'
(PID.TID 0000.0001)     ;
(PID.TID 0000.0001) PTRACERS_advScheme = /* Advection Scheme */
(PID.TID 0000.0001)                      33
(PID.TID 0000.0001)     ;
(PID.TID 0000.0001) PTRACERS_SOM_Advection = /* tracer uses SOM advection scheme */
(PID.TID 0000.0001)                   F
(PID.TID 0000.0001)     ;
(PID.TID 0000.0001) PTRACERS_ImplVertAdv = /* implicit vert. advection flag */
(PID.TID 0000.0001)                   F
(PID.TID 0000.0001)     ;
(PID.TID 0000.0001) PTRACERS_diffKh = /* Laplacian Diffusivity */
(PID.TID 0000.0001)                 0.000000000000000E+00
(PID.TID 0000.0001)     ;
(PID.TID 0000.0001) PTRACERS_diffK4 = /* Biharmonic Diffusivity */
(PID.TID 0000.0001)                 0.000000000000000E+00
(PID.TID 0000.0001)     ;
(PID.TID 0000.0001) PTRACERS_diffKrNr = /* Vertical Diffusivity */
(PID.TID 0000.0001)    35 @  1.000000000000000E-05              /* K =  1: 35 */
(PID.TID 0000.0001)     ;
(PID.TID 0000.0001) PTRACERS_useGMRedi = /* apply GM-Redi */
(PID.TID 0000.0001)                   F
(PID.TID 0000.0001)     ;
(PID.TID 0000.0001) PTRACERS_useDWNSLP = /* apply DOWN-SLOPE Flow */
(PID.TID 0000.0001)                   F
(PID.TID 0000.0001)     ;
(PID.TID 0000.0001) PTRACERS_useKPP = /* apply KPP scheme */
(PID.TID 0000.0001)                   F
(PID.TID 0000.0001)     ;
(PID.TID 0000.0001) PTRACERS_ref = /* Reference vertical profile */
(PID.TID 0000.0001)    35 @  0.000000000000000E+00              /* K =  1: 35 */
(PID.TID 0000.0001)     ;
(PID.TID 0000.0001) PTRACERS_EvPrRn =/* tracer conc. in Evap. & Rain */
(PID.TID 0000.0001)                 1.234567000000000E+05
(PID.TID 0000.0001)     ;
(PID.TID 0000.0001)  -----------------------------------
(PID.TID 0000.0001)  tracer number :   11
(PID.TID 0000.0001) PTRACERS_names = /* Tracer short name */
(PID.TID 0000.0001)               'DOFe'
(PID.TID 0000.0001)     ;
(PID.TID 0000.0001) PTRACERS_long_names = /* Tracer long name */
(PID.TID 0000.0001)               ''
(PID.TID 0000.0001)     ;
(PID.TID 0000.0001) PTRACERS_ioLabel = /* tracer IO Label */
(PID.TID 0000.0001)               '11'
(PID.TID 0000.0001)     ;
(PID.TID 0000.0001) PTRACERS_advScheme = /* Advection Scheme */
(PID.TID 0000.0001)                      33
(PID.TID 0000.0001)     ;
(PID.TID 0000.0001) PTRACERS_SOM_Advection = /* tracer uses SOM advection scheme */
(PID.TID 0000.0001)                   F
(PID.TID 0000.0001)     ;
(PID.TID 0000.0001) PTRACERS_ImplVertAdv = /* implicit vert. advection flag */
(PID.TID 0000.0001)                   F
(PID.TID 0000.0001)     ;
(PID.TID 0000.0001) PTRACERS_diffKh = /* Laplacian Diffusivity */
(PID.TID 0000.0001)                 0.000000000000000E+00
(PID.TID 0000.0001)     ;
(PID.TID 0000.0001) PTRACERS_diffK4 = /* Biharmonic Diffusivity */
(PID.TID 0000.0001)                 0.000000000000000E+00
(PID.TID 0000.0001)     ;
(PID.TID 0000.0001) PTRACERS_diffKrNr = /* Vertical Diffusivity */
(PID.TID 0000.0001)    35 @  1.000000000000000E-05              /* K =  1: 35 */
(PID.TID 0000.0001)     ;
(PID.TID 0000.0001) PTRACERS_useGMRedi = /* apply GM-Redi */
(PID.TID 0000.0001)                   F
(PID.TID 0000.0001)     ;
(PID.TID 0000.0001) PTRACERS_useDWNSLP = /* apply DOWN-SLOPE Flow */
(PID.TID 0000.0001)                   F
(PID.TID 0000.0001)     ;
(PID.TID 0000.0001) PTRACERS_useKPP = /* apply KPP scheme */
(PID.TID 0000.0001)                   F
(PID.TID 0000.0001)     ;
(PID.TID 0000.0001) PTRACERS_ref = /* Reference vertical profile */
(PID.TID 0000.0001)    35 @  0.000000000000000E+00              /* K =  1: 35 */
(PID.TID 0000.0001)     ;
(PID.TID 0000.0001) PTRACERS_EvPrRn =/* tracer conc. in Evap. & Rain */
(PID.TID 0000.0001)                 1.234567000000000E+05
(PID.TID 0000.0001)     ;
(PID.TID 0000.0001)  -----------------------------------
(PID.TID 0000.0001)  tracer number :   12
(PID.TID 0000.0001) PTRACERS_names = /* Tracer short name */
(PID.TID 0000.0001)               'POC'
(PID.TID 0000.0001)     ;
(PID.TID 0000.0001) PTRACERS_long_names = /* Tracer long name */
(PID.TID 0000.0001)               ''
(PID.TID 0000.0001)     ;
(PID.TID 0000.0001) PTRACERS_ioLabel = /* tracer IO Label */
(PID.TID 0000.0001)               '12'
(PID.TID 0000.0001)     ;
(PID.TID 0000.0001) PTRACERS_advScheme = /* Advection Scheme */
(PID.TID 0000.0001)                      33
(PID.TID 0000.0001)     ;
(PID.TID 0000.0001) PTRACERS_SOM_Advection = /* tracer uses SOM advection scheme */
(PID.TID 0000.0001)                   F
(PID.TID 0000.0001)     ;
(PID.TID 0000.0001) PTRACERS_ImplVertAdv = /* implicit vert. advection flag */
(PID.TID 0000.0001)                   F
(PID.TID 0000.0001)     ;
(PID.TID 0000.0001) PTRACERS_diffKh = /* Laplacian Diffusivity */
(PID.TID 0000.0001)                 0.000000000000000E+00
(PID.TID 0000.0001)     ;
(PID.TID 0000.0001) PTRACERS_diffK4 = /* Biharmonic Diffusivity */
(PID.TID 0000.0001)                 0.000000000000000E+00
(PID.TID 0000.0001)     ;
(PID.TID 0000.0001) PTRACERS_diffKrNr = /* Vertical Diffusivity */
(PID.TID 0000.0001)    35 @  1.000000000000000E-05              /* K =  1: 35 */
(PID.TID 0000.0001)     ;
(PID.TID 0000.0001) PTRACERS_useGMRedi = /* apply GM-Redi */
(PID.TID 0000.0001)                   F
(PID.TID 0000.0001)     ;
(PID.TID 0000.0001) PTRACERS_useDWNSLP = /* apply DOWN-SLOPE Flow */
(PID.TID 0000.0001)                   F
(PID.TID 0000.0001)     ;
(PID.TID 0000.0001) PTRACERS_useKPP = /* apply KPP scheme */
(PID.TID 0000.0001)                   F
(PID.TID 0000.0001)     ;
(PID.TID 0000.0001) PTRACERS_ref = /* Reference vertical profile */
(PID.TID 0000.0001)    35 @  0.000000000000000E+00              /* K =  1: 35 */
(PID.TID 0000.0001)     ;
(PID.TID 0000.0001) PTRACERS_EvPrRn =/* tracer conc. in Evap. & Rain */
(PID.TID 0000.0001)                 1.234567000000000E+05
(PID.TID 0000.0001)     ;
(PID.TID 0000.0001)  -----------------------------------
(PID.TID 0000.0001)  tracer number :   13
(PID.TID 0000.0001) PTRACERS_names = /* Tracer short name */
(PID.TID 0000.0001)               'PON'
(PID.TID 0000.0001)     ;
(PID.TID 0000.0001) PTRACERS_long_names = /* Tracer long name */
(PID.TID 0000.0001)               ''
(PID.TID 0000.0001)     ;
(PID.TID 0000.0001) PTRACERS_ioLabel = /* tracer IO Label */
(PID.TID 0000.0001)               '13'
(PID.TID 0000.0001)     ;
(PID.TID 0000.0001) PTRACERS_advScheme = /* Advection Scheme */
(PID.TID 0000.0001)                      33
(PID.TID 0000.0001)     ;
(PID.TID 0000.0001) PTRACERS_SOM_Advection = /* tracer uses SOM advection scheme */
(PID.TID 0000.0001)                   F
(PID.TID 0000.0001)     ;
(PID.TID 0000.0001) PTRACERS_ImplVertAdv = /* implicit vert. advection flag */
(PID.TID 0000.0001)                   F
(PID.TID 0000.0001)     ;
(PID.TID 0000.0001) PTRACERS_diffKh = /* Laplacian Diffusivity */
(PID.TID 0000.0001)                 0.000000000000000E+00
(PID.TID 0000.0001)     ;
(PID.TID 0000.0001) PTRACERS_diffK4 = /* Biharmonic Diffusivity */
(PID.TID 0000.0001)                 0.000000000000000E+00
(PID.TID 0000.0001)     ;
(PID.TID 0000.0001) PTRACERS_diffKrNr = /* Vertical Diffusivity */
(PID.TID 0000.0001)    35 @  1.000000000000000E-05              /* K =  1: 35 */
(PID.TID 0000.0001)     ;
(PID.TID 0000.0001) PTRACERS_useGMRedi = /* apply GM-Redi */
(PID.TID 0000.0001)                   F
(PID.TID 0000.0001)     ;
(PID.TID 0000.0001) PTRACERS_useDWNSLP = /* apply DOWN-SLOPE Flow */
(PID.TID 0000.0001)                   F
(PID.TID 0000.0001)     ;
(PID.TID 0000.0001) PTRACERS_useKPP = /* apply KPP scheme */
(PID.TID 0000.0001)                   F
(PID.TID 0000.0001)     ;
(PID.TID 0000.0001) PTRACERS_ref = /* Reference vertical profile */
(PID.TID 0000.0001)    35 @  0.000000000000000E+00              /* K =  1: 35 */
(PID.TID 0000.0001)     ;
(PID.TID 0000.0001) PTRACERS_EvPrRn =/* tracer conc. in Evap. & Rain */
(PID.TID 0000.0001)                 1.234567000000000E+05
(PID.TID 0000.0001)     ;
(PID.TID 0000.0001)  -----------------------------------
(PID.TID 0000.0001)  tracer number :   14
(PID.TID 0000.0001) PTRACERS_names = /* Tracer short name */
(PID.TID 0000.0001)               'POP'
(PID.TID 0000.0001)     ;
(PID.TID 0000.0001) PTRACERS_long_names = /* Tracer long name */
(PID.TID 0000.0001)               ''
(PID.TID 0000.0001)     ;
(PID.TID 0000.0001) PTRACERS_ioLabel = /* tracer IO Label */
(PID.TID 0000.0001)               '14'
(PID.TID 0000.0001)     ;
(PID.TID 0000.0001) PTRACERS_advScheme = /* Advection Scheme */
(PID.TID 0000.0001)                      33
(PID.TID 0000.0001)     ;
(PID.TID 0000.0001) PTRACERS_SOM_Advection = /* tracer uses SOM advection scheme */
(PID.TID 0000.0001)                   F
(PID.TID 0000.0001)     ;
(PID.TID 0000.0001) PTRACERS_ImplVertAdv = /* implicit vert. advection flag */
(PID.TID 0000.0001)                   F
(PID.TID 0000.0001)     ;
(PID.TID 0000.0001) PTRACERS_diffKh = /* Laplacian Diffusivity */
(PID.TID 0000.0001)                 0.000000000000000E+00
(PID.TID 0000.0001)     ;
(PID.TID 0000.0001) PTRACERS_diffK4 = /* Biharmonic Diffusivity */
(PID.TID 0000.0001)                 0.000000000000000E+00
(PID.TID 0000.0001)     ;
(PID.TID 0000.0001) PTRACERS_diffKrNr = /* Vertical Diffusivity */
(PID.TID 0000.0001)    35 @  1.000000000000000E-05              /* K =  1: 35 */
(PID.TID 0000.0001)     ;
(PID.TID 0000.0001) PTRACERS_useGMRedi = /* apply GM-Redi */
(PID.TID 0000.0001)                   F
(PID.TID 0000.0001)     ;
(PID.TID 0000.0001) PTRACERS_useDWNSLP = /* apply DOWN-SLOPE Flow */
(PID.TID 0000.0001)                   F
(PID.TID 0000.0001)     ;
(PID.TID 0000.0001) PTRACERS_useKPP = /* apply KPP scheme */
(PID.TID 0000.0001)                   F
(PID.TID 0000.0001)     ;
(PID.TID 0000.0001) PTRACERS_ref = /* Reference vertical profile */
(PID.TID 0000.0001)    35 @  0.000000000000000E+00              /* K =  1: 35 */
(PID.TID 0000.0001)     ;
(PID.TID 0000.0001) PTRACERS_EvPrRn =/* tracer conc. in Evap. & Rain */
(PID.TID 0000.0001)                 1.234567000000000E+05
(PID.TID 0000.0001)     ;
(PID.TID 0000.0001)  -----------------------------------
(PID.TID 0000.0001)  tracer number :   15
(PID.TID 0000.0001) PTRACERS_names = /* Tracer short name */
(PID.TID 0000.0001)               'POSi'
(PID.TID 0000.0001)     ;
(PID.TID 0000.0001) PTRACERS_long_names = /* Tracer long name */
(PID.TID 0000.0001)               ''
(PID.TID 0000.0001)     ;
(PID.TID 0000.0001) PTRACERS_ioLabel = /* tracer IO Label */
(PID.TID 0000.0001)               '15'
(PID.TID 0000.0001)     ;
(PID.TID 0000.0001) PTRACERS_advScheme = /* Advection Scheme */
(PID.TID 0000.0001)                      33
(PID.TID 0000.0001)     ;
(PID.TID 0000.0001) PTRACERS_SOM_Advection = /* tracer uses SOM advection scheme */
(PID.TID 0000.0001)                   F
(PID.TID 0000.0001)     ;
(PID.TID 0000.0001) PTRACERS_ImplVertAdv = /* implicit vert. advection flag */
(PID.TID 0000.0001)                   F
(PID.TID 0000.0001)     ;
(PID.TID 0000.0001) PTRACERS_diffKh = /* Laplacian Diffusivity */
(PID.TID 0000.0001)                 0.000000000000000E+00
(PID.TID 0000.0001)     ;
(PID.TID 0000.0001) PTRACERS_diffK4 = /* Biharmonic Diffusivity */
(PID.TID 0000.0001)                 0.000000000000000E+00
(PID.TID 0000.0001)     ;
(PID.TID 0000.0001) PTRACERS_diffKrNr = /* Vertical Diffusivity */
(PID.TID 0000.0001)    35 @  1.000000000000000E-05              /* K =  1: 35 */
(PID.TID 0000.0001)     ;
(PID.TID 0000.0001) PTRACERS_useGMRedi = /* apply GM-Redi */
(PID.TID 0000.0001)                   F
(PID.TID 0000.0001)     ;
(PID.TID 0000.0001) PTRACERS_useDWNSLP = /* apply DOWN-SLOPE Flow */
(PID.TID 0000.0001)                   F
(PID.TID 0000.0001)     ;
(PID.TID 0000.0001) PTRACERS_useKPP = /* apply KPP scheme */
(PID.TID 0000.0001)                   F
(PID.TID 0000.0001)     ;
(PID.TID 0000.0001) PTRACERS_ref = /* Reference vertical profile */
(PID.TID 0000.0001)    35 @  0.000000000000000E+00              /* K =  1: 35 */
(PID.TID 0000.0001)     ;
(PID.TID 0000.0001) PTRACERS_EvPrRn =/* tracer conc. in Evap. & Rain */
(PID.TID 0000.0001)                 1.234567000000000E+05
(PID.TID 0000.0001)     ;
(PID.TID 0000.0001)  -----------------------------------
(PID.TID 0000.0001)  tracer number :   16
(PID.TID 0000.0001) PTRACERS_names = /* Tracer short name */
(PID.TID 0000.0001)               'POFe'
(PID.TID 0000.0001)     ;
(PID.TID 0000.0001) PTRACERS_long_names = /* Tracer long name */
(PID.TID 0000.0001)               ''
(PID.TID 0000.0001)     ;
(PID.TID 0000.0001) PTRACERS_ioLabel = /* tracer IO Label */
(PID.TID 0000.0001)               '16'
(PID.TID 0000.0001)     ;
(PID.TID 0000.0001) PTRACERS_advScheme = /* Advection Scheme */
(PID.TID 0000.0001)                      33
(PID.TID 0000.0001)     ;
(PID.TID 0000.0001) PTRACERS_SOM_Advection = /* tracer uses SOM advection scheme */
(PID.TID 0000.0001)                   F
(PID.TID 0000.0001)     ;
(PID.TID 0000.0001) PTRACERS_ImplVertAdv = /* implicit vert. advection flag */
(PID.TID 0000.0001)                   F
(PID.TID 0000.0001)     ;
(PID.TID 0000.0001) PTRACERS_diffKh = /* Laplacian Diffusivity */
(PID.TID 0000.0001)                 0.000000000000000E+00
(PID.TID 0000.0001)     ;
(PID.TID 0000.0001) PTRACERS_diffK4 = /* Biharmonic Diffusivity */
(PID.TID 0000.0001)                 0.000000000000000E+00
(PID.TID 0000.0001)     ;
(PID.TID 0000.0001) PTRACERS_diffKrNr = /* Vertical Diffusivity */
(PID.TID 0000.0001)    35 @  1.000000000000000E-05              /* K =  1: 35 */
(PID.TID 0000.0001)     ;
(PID.TID 0000.0001) PTRACERS_useGMRedi = /* apply GM-Redi */
(PID.TID 0000.0001)                   F
(PID.TID 0000.0001)     ;
(PID.TID 0000.0001) PTRACERS_useDWNSLP = /* apply DOWN-SLOPE Flow */
(PID.TID 0000.0001)                   F
(PID.TID 0000.0001)     ;
(PID.TID 0000.0001) PTRACERS_useKPP = /* apply KPP scheme */
(PID.TID 0000.0001)                   F
(PID.TID 0000.0001)     ;
(PID.TID 0000.0001) PTRACERS_ref = /* Reference vertical profile */
(PID.TID 0000.0001)    35 @  0.000000000000000E+00              /* K =  1: 35 */
(PID.TID 0000.0001)     ;
(PID.TID 0000.0001) PTRACERS_EvPrRn =/* tracer conc. in Evap. & Rain */
(PID.TID 0000.0001)                 1.234567000000000E+05
(PID.TID 0000.0001)     ;
(PID.TID 0000.0001)  -----------------------------------
(PID.TID 0000.0001)  tracer number :   17
(PID.TID 0000.0001) PTRACERS_names = /* Tracer short name */
(PID.TID 0000.0001)               'PIC'
(PID.TID 0000.0001)     ;
(PID.TID 0000.0001) PTRACERS_long_names = /* Tracer long name */
(PID.TID 0000.0001)               ''
(PID.TID 0000.0001)     ;
(PID.TID 0000.0001) PTRACERS_ioLabel = /* tracer IO Label */
(PID.TID 0000.0001)               '17'
(PID.TID 0000.0001)     ;
(PID.TID 0000.0001) PTRACERS_advScheme = /* Advection Scheme */
(PID.TID 0000.0001)                      33
(PID.TID 0000.0001)     ;
(PID.TID 0000.0001) PTRACERS_SOM_Advection = /* tracer uses SOM advection scheme */
(PID.TID 0000.0001)                   F
(PID.TID 0000.0001)     ;
(PID.TID 0000.0001) PTRACERS_ImplVertAdv = /* implicit vert. advection flag */
(PID.TID 0000.0001)                   F
(PID.TID 0000.0001)     ;
(PID.TID 0000.0001) PTRACERS_diffKh = /* Laplacian Diffusivity */
(PID.TID 0000.0001)                 0.000000000000000E+00
(PID.TID 0000.0001)     ;
(PID.TID 0000.0001) PTRACERS_diffK4 = /* Biharmonic Diffusivity */
(PID.TID 0000.0001)                 0.000000000000000E+00
(PID.TID 0000.0001)     ;
(PID.TID 0000.0001) PTRACERS_diffKrNr = /* Vertical Diffusivity */
(PID.TID 0000.0001)    35 @  1.000000000000000E-05              /* K =  1: 35 */
(PID.TID 0000.0001)     ;
(PID.TID 0000.0001) PTRACERS_useGMRedi = /* apply GM-Redi */
(PID.TID 0000.0001)                   F
(PID.TID 0000.0001)     ;
(PID.TID 0000.0001) PTRACERS_useDWNSLP = /* apply DOWN-SLOPE Flow */
(PID.TID 0000.0001)                   F
(PID.TID 0000.0001)     ;
(PID.TID 0000.0001) PTRACERS_useKPP = /* apply KPP scheme */
(PID.TID 0000.0001)                   F
(PID.TID 0000.0001)     ;
(PID.TID 0000.0001) PTRACERS_ref = /* Reference vertical profile */
(PID.TID 0000.0001)    35 @  0.000000000000000E+00              /* K =  1: 35 */
(PID.TID 0000.0001)     ;
(PID.TID 0000.0001) PTRACERS_EvPrRn =/* tracer conc. in Evap. & Rain */
(PID.TID 0000.0001)                 1.234567000000000E+05
(PID.TID 0000.0001)     ;
(PID.TID 0000.0001)  -----------------------------------
(PID.TID 0000.0001)  tracer number :   18
(PID.TID 0000.0001) PTRACERS_names = /* Tracer short name */
(PID.TID 0000.0001)               'c01'
(PID.TID 0000.0001)     ;
(PID.TID 0000.0001) PTRACERS_long_names = /* Tracer long name */
(PID.TID 0000.0001)               ''
(PID.TID 0000.0001)     ;
(PID.TID 0000.0001) PTRACERS_ioLabel = /* tracer IO Label */
(PID.TID 0000.0001)               '18'
(PID.TID 0000.0001)     ;
(PID.TID 0000.0001) PTRACERS_advScheme = /* Advection Scheme */
(PID.TID 0000.0001)                      33
(PID.TID 0000.0001)     ;
(PID.TID 0000.0001) PTRACERS_SOM_Advection = /* tracer uses SOM advection scheme */
(PID.TID 0000.0001)                   F
(PID.TID 0000.0001)     ;
(PID.TID 0000.0001) PTRACERS_ImplVertAdv = /* implicit vert. advection flag */
(PID.TID 0000.0001)                   F
(PID.TID 0000.0001)     ;
(PID.TID 0000.0001) PTRACERS_diffKh = /* Laplacian Diffusivity */
(PID.TID 0000.0001)                 0.000000000000000E+00
(PID.TID 0000.0001)     ;
(PID.TID 0000.0001) PTRACERS_diffK4 = /* Biharmonic Diffusivity */
(PID.TID 0000.0001)                 0.000000000000000E+00
(PID.TID 0000.0001)     ;
(PID.TID 0000.0001) PTRACERS_diffKrNr = /* Vertical Diffusivity */
(PID.TID 0000.0001)    35 @  1.000000000000000E-05              /* K =  1: 35 */
(PID.TID 0000.0001)     ;
(PID.TID 0000.0001) PTRACERS_useGMRedi = /* apply GM-Redi */
(PID.TID 0000.0001)                   F
(PID.TID 0000.0001)     ;
(PID.TID 0000.0001) PTRACERS_useDWNSLP = /* apply DOWN-SLOPE Flow */
(PID.TID 0000.0001)                   F
(PID.TID 0000.0001)     ;
(PID.TID 0000.0001) PTRACERS_useKPP = /* apply KPP scheme */
(PID.TID 0000.0001)                   F
(PID.TID 0000.0001)     ;
(PID.TID 0000.0001) PTRACERS_ref = /* Reference vertical profile */
(PID.TID 0000.0001)    35 @  0.000000000000000E+00              /* K =  1: 35 */
(PID.TID 0000.0001)     ;
(PID.TID 0000.0001) PTRACERS_EvPrRn =/* tracer conc. in Evap. & Rain */
(PID.TID 0000.0001)                 1.234567000000000E+05
(PID.TID 0000.0001)     ;
(PID.TID 0000.0001)  -----------------------------------
(PID.TID 0000.0001)  tracer number :   19
(PID.TID 0000.0001) PTRACERS_names = /* Tracer short name */
(PID.TID 0000.0001)               'c02'
(PID.TID 0000.0001)     ;
(PID.TID 0000.0001) PTRACERS_long_names = /* Tracer long name */
(PID.TID 0000.0001)               ''
(PID.TID 0000.0001)     ;
(PID.TID 0000.0001) PTRACERS_ioLabel = /* tracer IO Label */
(PID.TID 0000.0001)               '19'
(PID.TID 0000.0001)     ;
(PID.TID 0000.0001) PTRACERS_advScheme = /* Advection Scheme */
(PID.TID 0000.0001)                      33
(PID.TID 0000.0001)     ;
(PID.TID 0000.0001) PTRACERS_SOM_Advection = /* tracer uses SOM advection scheme */
(PID.TID 0000.0001)                   F
(PID.TID 0000.0001)     ;
(PID.TID 0000.0001) PTRACERS_ImplVertAdv = /* implicit vert. advection flag */
(PID.TID 0000.0001)                   F
(PID.TID 0000.0001)     ;
(PID.TID 0000.0001) PTRACERS_diffKh = /* Laplacian Diffusivity */
(PID.TID 0000.0001)                 0.000000000000000E+00
(PID.TID 0000.0001)     ;
(PID.TID 0000.0001) PTRACERS_diffK4 = /* Biharmonic Diffusivity */
(PID.TID 0000.0001)                 0.000000000000000E+00
(PID.TID 0000.0001)     ;
(PID.TID 0000.0001) PTRACERS_diffKrNr = /* Vertical Diffusivity */
(PID.TID 0000.0001)    35 @  1.000000000000000E-05              /* K =  1: 35 */
(PID.TID 0000.0001)     ;
(PID.TID 0000.0001) PTRACERS_useGMRedi = /* apply GM-Redi */
(PID.TID 0000.0001)                   F
(PID.TID 0000.0001)     ;
(PID.TID 0000.0001) PTRACERS_useDWNSLP = /* apply DOWN-SLOPE Flow */
(PID.TID 0000.0001)                   F
(PID.TID 0000.0001)     ;
(PID.TID 0000.0001) PTRACERS_useKPP = /* apply KPP scheme */
(PID.TID 0000.0001)                   F
(PID.TID 0000.0001)     ;
(PID.TID 0000.0001) PTRACERS_ref = /* Reference vertical profile */
(PID.TID 0000.0001)    35 @  0.000000000000000E+00              /* K =  1: 35 */
(PID.TID 0000.0001)     ;
(PID.TID 0000.0001) PTRACERS_EvPrRn =/* tracer conc. in Evap. & Rain */
(PID.TID 0000.0001)                 1.234567000000000E+05
(PID.TID 0000.0001)     ;
(PID.TID 0000.0001)  -----------------------------------
(PID.TID 0000.0001)  tracer number :   20
(PID.TID 0000.0001) PTRACERS_names = /* Tracer short name */
(PID.TID 0000.0001)               'c03'
(PID.TID 0000.0001)     ;
(PID.TID 0000.0001) PTRACERS_long_names = /* Tracer long name */
(PID.TID 0000.0001)               ''
(PID.TID 0000.0001)     ;
(PID.TID 0000.0001) PTRACERS_ioLabel = /* tracer IO Label */
(PID.TID 0000.0001)               '20'
(PID.TID 0000.0001)     ;
(PID.TID 0000.0001) PTRACERS_advScheme = /* Advection Scheme */
(PID.TID 0000.0001)                      33
(PID.TID 0000.0001)     ;
(PID.TID 0000.0001) PTRACERS_SOM_Advection = /* tracer uses SOM advection scheme */
(PID.TID 0000.0001)                   F
(PID.TID 0000.0001)     ;
(PID.TID 0000.0001) PTRACERS_ImplVertAdv = /* implicit vert. advection flag */
(PID.TID 0000.0001)                   F
(PID.TID 0000.0001)     ;
(PID.TID 0000.0001) PTRACERS_diffKh = /* Laplacian Diffusivity */
(PID.TID 0000.0001)                 0.000000000000000E+00
(PID.TID 0000.0001)     ;
(PID.TID 0000.0001) PTRACERS_diffK4 = /* Biharmonic Diffusivity */
(PID.TID 0000.0001)                 0.000000000000000E+00
(PID.TID 0000.0001)     ;
(PID.TID 0000.0001) PTRACERS_diffKrNr = /* Vertical Diffusivity */
(PID.TID 0000.0001)    35 @  1.000000000000000E-05              /* K =  1: 35 */
(PID.TID 0000.0001)     ;
(PID.TID 0000.0001) PTRACERS_useGMRedi = /* apply GM-Redi */
(PID.TID 0000.0001)                   F
(PID.TID 0000.0001)     ;
(PID.TID 0000.0001) PTRACERS_useDWNSLP = /* apply DOWN-SLOPE Flow */
(PID.TID 0000.0001)                   F
(PID.TID 0000.0001)     ;
(PID.TID 0000.0001) PTRACERS_useKPP = /* apply KPP scheme */
(PID.TID 0000.0001)                   F
(PID.TID 0000.0001)     ;
(PID.TID 0000.0001) PTRACERS_ref = /* Reference vertical profile */
(PID.TID 0000.0001)    35 @  0.000000000000000E+00              /* K =  1: 35 */
(PID.TID 0000.0001)     ;
(PID.TID 0000.0001) PTRACERS_EvPrRn =/* tracer conc. in Evap. & Rain */
(PID.TID 0000.0001)                 1.234567000000000E+05
(PID.TID 0000.0001)     ;
(PID.TID 0000.0001)  -----------------------------------
(PID.TID 0000.0001)  tracer number :   21
(PID.TID 0000.0001) PTRACERS_names = /* Tracer short name */
(PID.TID 0000.0001)               'c04'
(PID.TID 0000.0001)     ;
(PID.TID 0000.0001) PTRACERS_long_names = /* Tracer long name */
(PID.TID 0000.0001)               ''
(PID.TID 0000.0001)     ;
(PID.TID 0000.0001) PTRACERS_ioLabel = /* tracer IO Label */
(PID.TID 0000.0001)               '21'
(PID.TID 0000.0001)     ;
(PID.TID 0000.0001) PTRACERS_advScheme = /* Advection Scheme */
(PID.TID 0000.0001)                      33
(PID.TID 0000.0001)     ;
(PID.TID 0000.0001) PTRACERS_SOM_Advection = /* tracer uses SOM advection scheme */
(PID.TID 0000.0001)                   F
(PID.TID 0000.0001)     ;
(PID.TID 0000.0001) PTRACERS_ImplVertAdv = /* implicit vert. advection flag */
(PID.TID 0000.0001)                   F
(PID.TID 0000.0001)     ;
(PID.TID 0000.0001) PTRACERS_diffKh = /* Laplacian Diffusivity */
(PID.TID 0000.0001)                 0.000000000000000E+00
(PID.TID 0000.0001)     ;
(PID.TID 0000.0001) PTRACERS_diffK4 = /* Biharmonic Diffusivity */
(PID.TID 0000.0001)                 0.000000000000000E+00
(PID.TID 0000.0001)     ;
(PID.TID 0000.0001) PTRACERS_diffKrNr = /* Vertical Diffusivity */
(PID.TID 0000.0001)    35 @  1.000000000000000E-05              /* K =  1: 35 */
(PID.TID 0000.0001)     ;
(PID.TID 0000.0001) PTRACERS_useGMRedi = /* apply GM-Redi */
(PID.TID 0000.0001)                   F
(PID.TID 0000.0001)     ;
(PID.TID 0000.0001) PTRACERS_useDWNSLP = /* apply DOWN-SLOPE Flow */
(PID.TID 0000.0001)                   F
(PID.TID 0000.0001)     ;
(PID.TID 0000.0001) PTRACERS_useKPP = /* apply KPP scheme */
(PID.TID 0000.0001)                   F
(PID.TID 0000.0001)     ;
(PID.TID 0000.0001) PTRACERS_ref = /* Reference vertical profile */
(PID.TID 0000.0001)    35 @  0.000000000000000E+00              /* K =  1: 35 */
(PID.TID 0000.0001)     ;
(PID.TID 0000.0001) PTRACERS_EvPrRn =/* tracer conc. in Evap. & Rain */
(PID.TID 0000.0001)                 1.234567000000000E+05
(PID.TID 0000.0001)     ;
(PID.TID 0000.0001)  -----------------------------------
(PID.TID 0000.0001)  tracer number :   22
(PID.TID 0000.0001) PTRACERS_names = /* Tracer short name */
(PID.TID 0000.0001)               'c05'
(PID.TID 0000.0001)     ;
(PID.TID 0000.0001) PTRACERS_long_names = /* Tracer long name */
(PID.TID 0000.0001)               ''
(PID.TID 0000.0001)     ;
(PID.TID 0000.0001) PTRACERS_ioLabel = /* tracer IO Label */
(PID.TID 0000.0001)               '22'
(PID.TID 0000.0001)     ;
(PID.TID 0000.0001) PTRACERS_advScheme = /* Advection Scheme */
(PID.TID 0000.0001)                      33
(PID.TID 0000.0001)     ;
(PID.TID 0000.0001) PTRACERS_SOM_Advection = /* tracer uses SOM advection scheme */
(PID.TID 0000.0001)                   F
(PID.TID 0000.0001)     ;
(PID.TID 0000.0001) PTRACERS_ImplVertAdv = /* implicit vert. advection flag */
(PID.TID 0000.0001)                   F
(PID.TID 0000.0001)     ;
(PID.TID 0000.0001) PTRACERS_diffKh = /* Laplacian Diffusivity */
(PID.TID 0000.0001)                 0.000000000000000E+00
(PID.TID 0000.0001)     ;
(PID.TID 0000.0001) PTRACERS_diffK4 = /* Biharmonic Diffusivity */
(PID.TID 0000.0001)                 0.000000000000000E+00
(PID.TID 0000.0001)     ;
(PID.TID 0000.0001) PTRACERS_diffKrNr = /* Vertical Diffusivity */
(PID.TID 0000.0001)    35 @  1.000000000000000E-05              /* K =  1: 35 */
(PID.TID 0000.0001)     ;
(PID.TID 0000.0001) PTRACERS_useGMRedi = /* apply GM-Redi */
(PID.TID 0000.0001)                   F
(PID.TID 0000.0001)     ;
(PID.TID 0000.0001) PTRACERS_useDWNSLP = /* apply DOWN-SLOPE Flow */
(PID.TID 0000.0001)                   F
(PID.TID 0000.0001)     ;
(PID.TID 0000.0001) PTRACERS_useKPP = /* apply KPP scheme */
(PID.TID 0000.0001)                   F
(PID.TID 0000.0001)     ;
(PID.TID 0000.0001) PTRACERS_ref = /* Reference vertical profile */
(PID.TID 0000.0001)    35 @  0.000000000000000E+00              /* K =  1: 35 */
(PID.TID 0000.0001)     ;
(PID.TID 0000.0001) PTRACERS_EvPrRn =/* tracer conc. in Evap. & Rain */
(PID.TID 0000.0001)                 1.234567000000000E+05
(PID.TID 0000.0001)     ;
(PID.TID 0000.0001)  -----------------------------------
(PID.TID 0000.0001)  tracer number :   23
(PID.TID 0000.0001) PTRACERS_names = /* Tracer short name */
(PID.TID 0000.0001)               'c06'
(PID.TID 0000.0001)     ;
(PID.TID 0000.0001) PTRACERS_long_names = /* Tracer long name */
(PID.TID 0000.0001)               ''
(PID.TID 0000.0001)     ;
(PID.TID 0000.0001) PTRACERS_ioLabel = /* tracer IO Label */
(PID.TID 0000.0001)               '23'
(PID.TID 0000.0001)     ;
(PID.TID 0000.0001) PTRACERS_advScheme = /* Advection Scheme */
(PID.TID 0000.0001)                      33
(PID.TID 0000.0001)     ;
(PID.TID 0000.0001) PTRACERS_SOM_Advection = /* tracer uses SOM advection scheme */
(PID.TID 0000.0001)                   F
(PID.TID 0000.0001)     ;
(PID.TID 0000.0001) PTRACERS_ImplVertAdv = /* implicit vert. advection flag */
(PID.TID 0000.0001)                   F
(PID.TID 0000.0001)     ;
(PID.TID 0000.0001) PTRACERS_diffKh = /* Laplacian Diffusivity */
(PID.TID 0000.0001)                 0.000000000000000E+00
(PID.TID 0000.0001)     ;
(PID.TID 0000.0001) PTRACERS_diffK4 = /* Biharmonic Diffusivity */
(PID.TID 0000.0001)                 0.000000000000000E+00
(PID.TID 0000.0001)     ;
(PID.TID 0000.0001) PTRACERS_diffKrNr = /* Vertical Diffusivity */
(PID.TID 0000.0001)    35 @  1.000000000000000E-05              /* K =  1: 35 */
(PID.TID 0000.0001)     ;
(PID.TID 0000.0001) PTRACERS_useGMRedi = /* apply GM-Redi */
(PID.TID 0000.0001)                   F
(PID.TID 0000.0001)     ;
(PID.TID 0000.0001) PTRACERS_useDWNSLP = /* apply DOWN-SLOPE Flow */
(PID.TID 0000.0001)                   F
(PID.TID 0000.0001)     ;
(PID.TID 0000.0001) PTRACERS_useKPP = /* apply KPP scheme */
(PID.TID 0000.0001)                   F
(PID.TID 0000.0001)     ;
(PID.TID 0000.0001) PTRACERS_ref = /* Reference vertical profile */
(PID.TID 0000.0001)    35 @  0.000000000000000E+00              /* K =  1: 35 */
(PID.TID 0000.0001)     ;
(PID.TID 0000.0001) PTRACERS_EvPrRn =/* tracer conc. in Evap. & Rain */
(PID.TID 0000.0001)                 1.234567000000000E+05
(PID.TID 0000.0001)     ;
(PID.TID 0000.0001)  -----------------------------------
(PID.TID 0000.0001)  tracer number :   24
(PID.TID 0000.0001) PTRACERS_names = /* Tracer short name */
(PID.TID 0000.0001)               'c07'
(PID.TID 0000.0001)     ;
(PID.TID 0000.0001) PTRACERS_long_names = /* Tracer long name */
(PID.TID 0000.0001)               ''
(PID.TID 0000.0001)     ;
(PID.TID 0000.0001) PTRACERS_ioLabel = /* tracer IO Label */
(PID.TID 0000.0001)               '24'
(PID.TID 0000.0001)     ;
(PID.TID 0000.0001) PTRACERS_advScheme = /* Advection Scheme */
(PID.TID 0000.0001)                      33
(PID.TID 0000.0001)     ;
(PID.TID 0000.0001) PTRACERS_SOM_Advection = /* tracer uses SOM advection scheme */
(PID.TID 0000.0001)                   F
(PID.TID 0000.0001)     ;
(PID.TID 0000.0001) PTRACERS_ImplVertAdv = /* implicit vert. advection flag */
(PID.TID 0000.0001)                   F
(PID.TID 0000.0001)     ;
(PID.TID 0000.0001) PTRACERS_diffKh = /* Laplacian Diffusivity */
(PID.TID 0000.0001)                 0.000000000000000E+00
(PID.TID 0000.0001)     ;
(PID.TID 0000.0001) PTRACERS_diffK4 = /* Biharmonic Diffusivity */
(PID.TID 0000.0001)                 0.000000000000000E+00
(PID.TID 0000.0001)     ;
(PID.TID 0000.0001) PTRACERS_diffKrNr = /* Vertical Diffusivity */
(PID.TID 0000.0001)    35 @  1.000000000000000E-05              /* K =  1: 35 */
(PID.TID 0000.0001)     ;
(PID.TID 0000.0001) PTRACERS_useGMRedi = /* apply GM-Redi */
(PID.TID 0000.0001)                   F
(PID.TID 0000.0001)     ;
(PID.TID 0000.0001) PTRACERS_useDWNSLP = /* apply DOWN-SLOPE Flow */
(PID.TID 0000.0001)                   F
(PID.TID 0000.0001)     ;
(PID.TID 0000.0001) PTRACERS_useKPP = /* apply KPP scheme */
(PID.TID 0000.0001)                   F
(PID.TID 0000.0001)     ;
(PID.TID 0000.0001) PTRACERS_ref = /* Reference vertical profile */
(PID.TID 0000.0001)    35 @  0.000000000000000E+00              /* K =  1: 35 */
(PID.TID 0000.0001)     ;
(PID.TID 0000.0001) PTRACERS_EvPrRn =/* tracer conc. in Evap. & Rain */
(PID.TID 0000.0001)                 1.234567000000000E+05
(PID.TID 0000.0001)     ;
(PID.TID 0000.0001)  -----------------------------------
(PID.TID 0000.0001)  tracer number :   25
(PID.TID 0000.0001) PTRACERS_names = /* Tracer short name */
(PID.TID 0000.0001)               'c08'
(PID.TID 0000.0001)     ;
(PID.TID 0000.0001) PTRACERS_long_names = /* Tracer long name */
(PID.TID 0000.0001)               ''
(PID.TID 0000.0001)     ;
(PID.TID 0000.0001) PTRACERS_ioLabel = /* tracer IO Label */
(PID.TID 0000.0001)               '25'
(PID.TID 0000.0001)     ;
(PID.TID 0000.0001) PTRACERS_advScheme = /* Advection Scheme */
(PID.TID 0000.0001)                      33
(PID.TID 0000.0001)     ;
(PID.TID 0000.0001) PTRACERS_SOM_Advection = /* tracer uses SOM advection scheme */
(PID.TID 0000.0001)                   F
(PID.TID 0000.0001)     ;
(PID.TID 0000.0001) PTRACERS_ImplVertAdv = /* implicit vert. advection flag */
(PID.TID 0000.0001)                   F
(PID.TID 0000.0001)     ;
(PID.TID 0000.0001) PTRACERS_diffKh = /* Laplacian Diffusivity */
(PID.TID 0000.0001)                 0.000000000000000E+00
(PID.TID 0000.0001)     ;
(PID.TID 0000.0001) PTRACERS_diffK4 = /* Biharmonic Diffusivity */
(PID.TID 0000.0001)                 0.000000000000000E+00
(PID.TID 0000.0001)     ;
(PID.TID 0000.0001) PTRACERS_diffKrNr = /* Vertical Diffusivity */
(PID.TID 0000.0001)    35 @  1.000000000000000E-05              /* K =  1: 35 */
(PID.TID 0000.0001)     ;
(PID.TID 0000.0001) PTRACERS_useGMRedi = /* apply GM-Redi */
(PID.TID 0000.0001)                   F
(PID.TID 0000.0001)     ;
(PID.TID 0000.0001) PTRACERS_useDWNSLP = /* apply DOWN-SLOPE Flow */
(PID.TID 0000.0001)                   F
(PID.TID 0000.0001)     ;
(PID.TID 0000.0001) PTRACERS_useKPP = /* apply KPP scheme */
(PID.TID 0000.0001)                   F
(PID.TID 0000.0001)     ;
(PID.TID 0000.0001) PTRACERS_ref = /* Reference vertical profile */
(PID.TID 0000.0001)    35 @  0.000000000000000E+00              /* K =  1: 35 */
(PID.TID 0000.0001)     ;
(PID.TID 0000.0001) PTRACERS_EvPrRn =/* tracer conc. in Evap. & Rain */
(PID.TID 0000.0001)                 1.234567000000000E+05
(PID.TID 0000.0001)     ;
(PID.TID 0000.0001)  -----------------------------------
(PID.TID 0000.0001)  tracer number :   26
(PID.TID 0000.0001) PTRACERS_names = /* Tracer short name */
(PID.TID 0000.0001)               'c09'
(PID.TID 0000.0001)     ;
(PID.TID 0000.0001) PTRACERS_long_names = /* Tracer long name */
(PID.TID 0000.0001)               ''
(PID.TID 0000.0001)     ;
(PID.TID 0000.0001) PTRACERS_ioLabel = /* tracer IO Label */
(PID.TID 0000.0001)               '26'
(PID.TID 0000.0001)     ;
(PID.TID 0000.0001) PTRACERS_advScheme = /* Advection Scheme */
(PID.TID 0000.0001)                      33
(PID.TID 0000.0001)     ;
(PID.TID 0000.0001) PTRACERS_SOM_Advection = /* tracer uses SOM advection scheme */
(PID.TID 0000.0001)                   F
(PID.TID 0000.0001)     ;
(PID.TID 0000.0001) PTRACERS_ImplVertAdv = /* implicit vert. advection flag */
(PID.TID 0000.0001)                   F
(PID.TID 0000.0001)     ;
(PID.TID 0000.0001) PTRACERS_diffKh = /* Laplacian Diffusivity */
(PID.TID 0000.0001)                 0.000000000000000E+00
(PID.TID 0000.0001)     ;
(PID.TID 0000.0001) PTRACERS_diffK4 = /* Biharmonic Diffusivity */
(PID.TID 0000.0001)                 0.000000000000000E+00
(PID.TID 0000.0001)     ;
(PID.TID 0000.0001) PTRACERS_diffKrNr = /* Vertical Diffusivity */
(PID.TID 0000.0001)    35 @  1.000000000000000E-05              /* K =  1: 35 */
(PID.TID 0000.0001)     ;
(PID.TID 0000.0001) PTRACERS_useGMRedi = /* apply GM-Redi */
(PID.TID 0000.0001)                   F
(PID.TID 0000.0001)     ;
(PID.TID 0000.0001) PTRACERS_useDWNSLP = /* apply DOWN-SLOPE Flow */
(PID.TID 0000.0001)                   F
(PID.TID 0000.0001)     ;
(PID.TID 0000.0001) PTRACERS_useKPP = /* apply KPP scheme */
(PID.TID 0000.0001)                   F
(PID.TID 0000.0001)     ;
(PID.TID 0000.0001) PTRACERS_ref = /* Reference vertical profile */
(PID.TID 0000.0001)    35 @  0.000000000000000E+00              /* K =  1: 35 */
(PID.TID 0000.0001)     ;
(PID.TID 0000.0001) PTRACERS_EvPrRn =/* tracer conc. in Evap. & Rain */
(PID.TID 0000.0001)                 1.234567000000000E+05
(PID.TID 0000.0001)     ;
(PID.TID 0000.0001)  -----------------------------------
(PID.TID 0000.0001)  tracer number :   27
(PID.TID 0000.0001) PTRACERS_names = /* Tracer short name */
(PID.TID 0000.0001)               'c10'
(PID.TID 0000.0001)     ;
(PID.TID 0000.0001) PTRACERS_long_names = /* Tracer long name */
(PID.TID 0000.0001)               ''
(PID.TID 0000.0001)     ;
(PID.TID 0000.0001) PTRACERS_ioLabel = /* tracer IO Label */
(PID.TID 0000.0001)               '27'
(PID.TID 0000.0001)     ;
(PID.TID 0000.0001) PTRACERS_advScheme = /* Advection Scheme */
(PID.TID 0000.0001)                      33
(PID.TID 0000.0001)     ;
(PID.TID 0000.0001) PTRACERS_SOM_Advection = /* tracer uses SOM advection scheme */
(PID.TID 0000.0001)                   F
(PID.TID 0000.0001)     ;
(PID.TID 0000.0001) PTRACERS_ImplVertAdv = /* implicit vert. advection flag */
(PID.TID 0000.0001)                   F
(PID.TID 0000.0001)     ;
(PID.TID 0000.0001) PTRACERS_diffKh = /* Laplacian Diffusivity */
(PID.TID 0000.0001)                 0.000000000000000E+00
(PID.TID 0000.0001)     ;
(PID.TID 0000.0001) PTRACERS_diffK4 = /* Biharmonic Diffusivity */
(PID.TID 0000.0001)                 0.000000000000000E+00
(PID.TID 0000.0001)     ;
(PID.TID 0000.0001) PTRACERS_diffKrNr = /* Vertical Diffusivity */
(PID.TID 0000.0001)    35 @  1.000000000000000E-05              /* K =  1: 35 */
(PID.TID 0000.0001)     ;
(PID.TID 0000.0001) PTRACERS_useGMRedi = /* apply GM-Redi */
(PID.TID 0000.0001)                   F
(PID.TID 0000.0001)     ;
(PID.TID 0000.0001) PTRACERS_useDWNSLP = /* apply DOWN-SLOPE Flow */
(PID.TID 0000.0001)                   F
(PID.TID 0000.0001)     ;
(PID.TID 0000.0001) PTRACERS_useKPP = /* apply KPP scheme */
(PID.TID 0000.0001)                   F
(PID.TID 0000.0001)     ;
(PID.TID 0000.0001) PTRACERS_ref = /* Reference vertical profile */
(PID.TID 0000.0001)    35 @  0.000000000000000E+00              /* K =  1: 35 */
(PID.TID 0000.0001)     ;
(PID.TID 0000.0001) PTRACERS_EvPrRn =/* tracer conc. in Evap. & Rain */
(PID.TID 0000.0001)                 1.234567000000000E+05
(PID.TID 0000.0001)     ;
(PID.TID 0000.0001)  -----------------------------------
(PID.TID 0000.0001)  tracer number :   28
(PID.TID 0000.0001) PTRACERS_names = /* Tracer short name */
(PID.TID 0000.0001)               'c11'
(PID.TID 0000.0001)     ;
(PID.TID 0000.0001) PTRACERS_long_names = /* Tracer long name */
(PID.TID 0000.0001)               ''
(PID.TID 0000.0001)     ;
(PID.TID 0000.0001) PTRACERS_ioLabel = /* tracer IO Label */
(PID.TID 0000.0001)               '28'
(PID.TID 0000.0001)     ;
(PID.TID 0000.0001) PTRACERS_advScheme = /* Advection Scheme */
(PID.TID 0000.0001)                      33
(PID.TID 0000.0001)     ;
(PID.TID 0000.0001) PTRACERS_SOM_Advection = /* tracer uses SOM advection scheme */
(PID.TID 0000.0001)                   F
(PID.TID 0000.0001)     ;
(PID.TID 0000.0001) PTRACERS_ImplVertAdv = /* implicit vert. advection flag */
(PID.TID 0000.0001)                   F
(PID.TID 0000.0001)     ;
(PID.TID 0000.0001) PTRACERS_diffKh = /* Laplacian Diffusivity */
(PID.TID 0000.0001)                 0.000000000000000E+00
(PID.TID 0000.0001)     ;
(PID.TID 0000.0001) PTRACERS_diffK4 = /* Biharmonic Diffusivity */
(PID.TID 0000.0001)                 0.000000000000000E+00
(PID.TID 0000.0001)     ;
(PID.TID 0000.0001) PTRACERS_diffKrNr = /* Vertical Diffusivity */
(PID.TID 0000.0001)    35 @  1.000000000000000E-05              /* K =  1: 35 */
(PID.TID 0000.0001)     ;
(PID.TID 0000.0001) PTRACERS_useGMRedi = /* apply GM-Redi */
(PID.TID 0000.0001)                   F
(PID.TID 0000.0001)     ;
(PID.TID 0000.0001) PTRACERS_useDWNSLP = /* apply DOWN-SLOPE Flow */
(PID.TID 0000.0001)                   F
(PID.TID 0000.0001)     ;
(PID.TID 0000.0001) PTRACERS_useKPP = /* apply KPP scheme */
(PID.TID 0000.0001)                   F
(PID.TID 0000.0001)     ;
(PID.TID 0000.0001) PTRACERS_ref = /* Reference vertical profile */
(PID.TID 0000.0001)    35 @  0.000000000000000E+00              /* K =  1: 35 */
(PID.TID 0000.0001)     ;
(PID.TID 0000.0001) PTRACERS_EvPrRn =/* tracer conc. in Evap. & Rain */
(PID.TID 0000.0001)                 1.234567000000000E+05
(PID.TID 0000.0001)     ;
(PID.TID 0000.0001)  -----------------------------------
(PID.TID 0000.0001)  tracer number :   29
(PID.TID 0000.0001) PTRACERS_names = /* Tracer short name */
(PID.TID 0000.0001)               'c12'
(PID.TID 0000.0001)     ;
(PID.TID 0000.0001) PTRACERS_long_names = /* Tracer long name */
(PID.TID 0000.0001)               ''
(PID.TID 0000.0001)     ;
(PID.TID 0000.0001) PTRACERS_ioLabel = /* tracer IO Label */
(PID.TID 0000.0001)               '29'
(PID.TID 0000.0001)     ;
(PID.TID 0000.0001) PTRACERS_advScheme = /* Advection Scheme */
(PID.TID 0000.0001)                      33
(PID.TID 0000.0001)     ;
(PID.TID 0000.0001) PTRACERS_SOM_Advection = /* tracer uses SOM advection scheme */
(PID.TID 0000.0001)                   F
(PID.TID 0000.0001)     ;
(PID.TID 0000.0001) PTRACERS_ImplVertAdv = /* implicit vert. advection flag */
(PID.TID 0000.0001)                   F
(PID.TID 0000.0001)     ;
(PID.TID 0000.0001) PTRACERS_diffKh = /* Laplacian Diffusivity */
(PID.TID 0000.0001)                 0.000000000000000E+00
(PID.TID 0000.0001)     ;
(PID.TID 0000.0001) PTRACERS_diffK4 = /* Biharmonic Diffusivity */
(PID.TID 0000.0001)                 0.000000000000000E+00
(PID.TID 0000.0001)     ;
(PID.TID 0000.0001) PTRACERS_diffKrNr = /* Vertical Diffusivity */
(PID.TID 0000.0001)    35 @  1.000000000000000E-05              /* K =  1: 35 */
(PID.TID 0000.0001)     ;
(PID.TID 0000.0001) PTRACERS_useGMRedi = /* apply GM-Redi */
(PID.TID 0000.0001)                   F
(PID.TID 0000.0001)     ;
(PID.TID 0000.0001) PTRACERS_useDWNSLP = /* apply DOWN-SLOPE Flow */
(PID.TID 0000.0001)                   F
(PID.TID 0000.0001)     ;
(PID.TID 0000.0001) PTRACERS_useKPP = /* apply KPP scheme */
(PID.TID 0000.0001)                   F
(PID.TID 0000.0001)     ;
(PID.TID 0000.0001) PTRACERS_ref = /* Reference vertical profile */
(PID.TID 0000.0001)    35 @  0.000000000000000E+00              /* K =  1: 35 */
(PID.TID 0000.0001)     ;
(PID.TID 0000.0001) PTRACERS_EvPrRn =/* tracer conc. in Evap. & Rain */
(PID.TID 0000.0001)                 1.234567000000000E+05
(PID.TID 0000.0001)     ;
(PID.TID 0000.0001)  -----------------------------------
(PID.TID 0000.0001)  tracer number :   30
(PID.TID 0000.0001) PTRACERS_names = /* Tracer short name */
(PID.TID 0000.0001)               'c13'
(PID.TID 0000.0001)     ;
(PID.TID 0000.0001) PTRACERS_long_names = /* Tracer long name */
(PID.TID 0000.0001)               ''
(PID.TID 0000.0001)     ;
(PID.TID 0000.0001) PTRACERS_ioLabel = /* tracer IO Label */
(PID.TID 0000.0001)               '30'
(PID.TID 0000.0001)     ;
(PID.TID 0000.0001) PTRACERS_advScheme = /* Advection Scheme */
(PID.TID 0000.0001)                      33
(PID.TID 0000.0001)     ;
(PID.TID 0000.0001) PTRACERS_SOM_Advection = /* tracer uses SOM advection scheme */
(PID.TID 0000.0001)                   F
(PID.TID 0000.0001)     ;
(PID.TID 0000.0001) PTRACERS_ImplVertAdv = /* implicit vert. advection flag */
(PID.TID 0000.0001)                   F
(PID.TID 0000.0001)     ;
(PID.TID 0000.0001) PTRACERS_diffKh = /* Laplacian Diffusivity */
(PID.TID 0000.0001)                 0.000000000000000E+00
(PID.TID 0000.0001)     ;
(PID.TID 0000.0001) PTRACERS_diffK4 = /* Biharmonic Diffusivity */
(PID.TID 0000.0001)                 0.000000000000000E+00
(PID.TID 0000.0001)     ;
(PID.TID 0000.0001) PTRACERS_diffKrNr = /* Vertical Diffusivity */
(PID.TID 0000.0001)    35 @  1.000000000000000E-05              /* K =  1: 35 */
(PID.TID 0000.0001)     ;
(PID.TID 0000.0001) PTRACERS_useGMRedi = /* apply GM-Redi */
(PID.TID 0000.0001)                   F
(PID.TID 0000.0001)     ;
(PID.TID 0000.0001) PTRACERS_useDWNSLP = /* apply DOWN-SLOPE Flow */
(PID.TID 0000.0001)                   F
(PID.TID 0000.0001)     ;
(PID.TID 0000.0001) PTRACERS_useKPP = /* apply KPP scheme */
(PID.TID 0000.0001)                   F
(PID.TID 0000.0001)     ;
(PID.TID 0000.0001) PTRACERS_ref = /* Reference vertical profile */
(PID.TID 0000.0001)    35 @  0.000000000000000E+00              /* K =  1: 35 */
(PID.TID 0000.0001)     ;
(PID.TID 0000.0001) PTRACERS_EvPrRn =/* tracer conc. in Evap. & Rain */
(PID.TID 0000.0001)                 1.234567000000000E+05
(PID.TID 0000.0001)     ;
(PID.TID 0000.0001)  -----------------------------------
(PID.TID 0000.0001)  tracer number :   31
(PID.TID 0000.0001) PTRACERS_names = /* Tracer short name */
(PID.TID 0000.0001)               'c14'
(PID.TID 0000.0001)     ;
(PID.TID 0000.0001) PTRACERS_long_names = /* Tracer long name */
(PID.TID 0000.0001)               ''
(PID.TID 0000.0001)     ;
(PID.TID 0000.0001) PTRACERS_ioLabel = /* tracer IO Label */
(PID.TID 0000.0001)               '31'
(PID.TID 0000.0001)     ;
(PID.TID 0000.0001) PTRACERS_advScheme = /* Advection Scheme */
(PID.TID 0000.0001)                      33
(PID.TID 0000.0001)     ;
(PID.TID 0000.0001) PTRACERS_SOM_Advection = /* tracer uses SOM advection scheme */
(PID.TID 0000.0001)                   F
(PID.TID 0000.0001)     ;
(PID.TID 0000.0001) PTRACERS_ImplVertAdv = /* implicit vert. advection flag */
(PID.TID 0000.0001)                   F
(PID.TID 0000.0001)     ;
(PID.TID 0000.0001) PTRACERS_diffKh = /* Laplacian Diffusivity */
(PID.TID 0000.0001)                 0.000000000000000E+00
(PID.TID 0000.0001)     ;
(PID.TID 0000.0001) PTRACERS_diffK4 = /* Biharmonic Diffusivity */
(PID.TID 0000.0001)                 0.000000000000000E+00
(PID.TID 0000.0001)     ;
(PID.TID 0000.0001) PTRACERS_diffKrNr = /* Vertical Diffusivity */
(PID.TID 0000.0001)    35 @  1.000000000000000E-05              /* K =  1: 35 */
(PID.TID 0000.0001)     ;
(PID.TID 0000.0001) PTRACERS_useGMRedi = /* apply GM-Redi */
(PID.TID 0000.0001)                   F
(PID.TID 0000.0001)     ;
(PID.TID 0000.0001) PTRACERS_useDWNSLP = /* apply DOWN-SLOPE Flow */
(PID.TID 0000.0001)                   F
(PID.TID 0000.0001)     ;
(PID.TID 0000.0001) PTRACERS_useKPP = /* apply KPP scheme */
(PID.TID 0000.0001)                   F
(PID.TID 0000.0001)     ;
(PID.TID 0000.0001) PTRACERS_ref = /* Reference vertical profile */
(PID.TID 0000.0001)    35 @  0.000000000000000E+00              /* K =  1: 35 */
(PID.TID 0000.0001)     ;
(PID.TID 0000.0001) PTRACERS_EvPrRn =/* tracer conc. in Evap. & Rain */
(PID.TID 0000.0001)                 1.234567000000000E+05
(PID.TID 0000.0001)     ;
(PID.TID 0000.0001)  -----------------------------------
(PID.TID 0000.0001)  tracer number :   32
(PID.TID 0000.0001) PTRACERS_names = /* Tracer short name */
(PID.TID 0000.0001)               'c15'
(PID.TID 0000.0001)     ;
(PID.TID 0000.0001) PTRACERS_long_names = /* Tracer long name */
(PID.TID 0000.0001)               ''
(PID.TID 0000.0001)     ;
(PID.TID 0000.0001) PTRACERS_ioLabel = /* tracer IO Label */
(PID.TID 0000.0001)               '32'
(PID.TID 0000.0001)     ;
(PID.TID 0000.0001) PTRACERS_advScheme = /* Advection Scheme */
(PID.TID 0000.0001)                      33
(PID.TID 0000.0001)     ;
(PID.TID 0000.0001) PTRACERS_SOM_Advection = /* tracer uses SOM advection scheme */
(PID.TID 0000.0001)                   F
(PID.TID 0000.0001)     ;
(PID.TID 0000.0001) PTRACERS_ImplVertAdv = /* implicit vert. advection flag */
(PID.TID 0000.0001)                   F
(PID.TID 0000.0001)     ;
(PID.TID 0000.0001) PTRACERS_diffKh = /* Laplacian Diffusivity */
(PID.TID 0000.0001)                 0.000000000000000E+00
(PID.TID 0000.0001)     ;
(PID.TID 0000.0001) PTRACERS_diffK4 = /* Biharmonic Diffusivity */
(PID.TID 0000.0001)                 0.000000000000000E+00
(PID.TID 0000.0001)     ;
(PID.TID 0000.0001) PTRACERS_diffKrNr = /* Vertical Diffusivity */
(PID.TID 0000.0001)    35 @  1.000000000000000E-05              /* K =  1: 35 */
(PID.TID 0000.0001)     ;
(PID.TID 0000.0001) PTRACERS_useGMRedi = /* apply GM-Redi */
(PID.TID 0000.0001)                   F
(PID.TID 0000.0001)     ;
(PID.TID 0000.0001) PTRACERS_useDWNSLP = /* apply DOWN-SLOPE Flow */
(PID.TID 0000.0001)                   F
(PID.TID 0000.0001)     ;
(PID.TID 0000.0001) PTRACERS_useKPP = /* apply KPP scheme */
(PID.TID 0000.0001)                   F
(PID.TID 0000.0001)     ;
(PID.TID 0000.0001) PTRACERS_ref = /* Reference vertical profile */
(PID.TID 0000.0001)    35 @  0.000000000000000E+00              /* K =  1: 35 */
(PID.TID 0000.0001)     ;
(PID.TID 0000.0001) PTRACERS_EvPrRn =/* tracer conc. in Evap. & Rain */
(PID.TID 0000.0001)                 1.234567000000000E+05
(PID.TID 0000.0001)     ;
(PID.TID 0000.0001)  -----------------------------------
(PID.TID 0000.0001)  tracer number :   33
(PID.TID 0000.0001) PTRACERS_names = /* Tracer short name */
(PID.TID 0000.0001)               'c16'
(PID.TID 0000.0001)     ;
(PID.TID 0000.0001) PTRACERS_long_names = /* Tracer long name */
(PID.TID 0000.0001)               ''
(PID.TID 0000.0001)     ;
(PID.TID 0000.0001) PTRACERS_ioLabel = /* tracer IO Label */
(PID.TID 0000.0001)               '33'
(PID.TID 0000.0001)     ;
(PID.TID 0000.0001) PTRACERS_advScheme = /* Advection Scheme */
(PID.TID 0000.0001)                      33
(PID.TID 0000.0001)     ;
(PID.TID 0000.0001) PTRACERS_SOM_Advection = /* tracer uses SOM advection scheme */
(PID.TID 0000.0001)                   F
(PID.TID 0000.0001)     ;
(PID.TID 0000.0001) PTRACERS_ImplVertAdv = /* implicit vert. advection flag */
(PID.TID 0000.0001)                   F
(PID.TID 0000.0001)     ;
(PID.TID 0000.0001) PTRACERS_diffKh = /* Laplacian Diffusivity */
(PID.TID 0000.0001)                 0.000000000000000E+00
(PID.TID 0000.0001)     ;
(PID.TID 0000.0001) PTRACERS_diffK4 = /* Biharmonic Diffusivity */
(PID.TID 0000.0001)                 0.000000000000000E+00
(PID.TID 0000.0001)     ;
(PID.TID 0000.0001) PTRACERS_diffKrNr = /* Vertical Diffusivity */
(PID.TID 0000.0001)    35 @  1.000000000000000E-05              /* K =  1: 35 */
(PID.TID 0000.0001)     ;
(PID.TID 0000.0001) PTRACERS_useGMRedi = /* apply GM-Redi */
(PID.TID 0000.0001)                   F
(PID.TID 0000.0001)     ;
(PID.TID 0000.0001) PTRACERS_useDWNSLP = /* apply DOWN-SLOPE Flow */
(PID.TID 0000.0001)                   F
(PID.TID 0000.0001)     ;
(PID.TID 0000.0001) PTRACERS_useKPP = /* apply KPP scheme */
(PID.TID 0000.0001)                   F
(PID.TID 0000.0001)     ;
(PID.TID 0000.0001) PTRACERS_ref = /* Reference vertical profile */
(PID.TID 0000.0001)    35 @  0.000000000000000E+00              /* K =  1: 35 */
(PID.TID 0000.0001)     ;
(PID.TID 0000.0001) PTRACERS_EvPrRn =/* tracer conc. in Evap. & Rain */
(PID.TID 0000.0001)                 1.234567000000000E+05
(PID.TID 0000.0001)     ;
(PID.TID 0000.0001)  -----------------------------------
(PID.TID 0000.0001)  tracer number :   34
(PID.TID 0000.0001) PTRACERS_names = /* Tracer short name */
(PID.TID 0000.0001)               'c17'
(PID.TID 0000.0001)     ;
(PID.TID 0000.0001) PTRACERS_long_names = /* Tracer long name */
(PID.TID 0000.0001)               ''
(PID.TID 0000.0001)     ;
(PID.TID 0000.0001) PTRACERS_ioLabel = /* tracer IO Label */
(PID.TID 0000.0001)               '34'
(PID.TID 0000.0001)     ;
(PID.TID 0000.0001) PTRACERS_advScheme = /* Advection Scheme */
(PID.TID 0000.0001)                      33
(PID.TID 0000.0001)     ;
(PID.TID 0000.0001) PTRACERS_SOM_Advection = /* tracer uses SOM advection scheme */
(PID.TID 0000.0001)                   F
(PID.TID 0000.0001)     ;
(PID.TID 0000.0001) PTRACERS_ImplVertAdv = /* implicit vert. advection flag */
(PID.TID 0000.0001)                   F
(PID.TID 0000.0001)     ;
(PID.TID 0000.0001) PTRACERS_diffKh = /* Laplacian Diffusivity */
(PID.TID 0000.0001)                 0.000000000000000E+00
(PID.TID 0000.0001)     ;
(PID.TID 0000.0001) PTRACERS_diffK4 = /* Biharmonic Diffusivity */
(PID.TID 0000.0001)                 0.000000000000000E+00
(PID.TID 0000.0001)     ;
(PID.TID 0000.0001) PTRACERS_diffKrNr = /* Vertical Diffusivity */
(PID.TID 0000.0001)    35 @  1.000000000000000E-05              /* K =  1: 35 */
(PID.TID 0000.0001)     ;
(PID.TID 0000.0001) PTRACERS_useGMRedi = /* apply GM-Redi */
(PID.TID 0000.0001)                   F
(PID.TID 0000.0001)     ;
(PID.TID 0000.0001) PTRACERS_useDWNSLP = /* apply DOWN-SLOPE Flow */
(PID.TID 0000.0001)                   F
(PID.TID 0000.0001)     ;
(PID.TID 0000.0001) PTRACERS_useKPP = /* apply KPP scheme */
(PID.TID 0000.0001)                   F
(PID.TID 0000.0001)     ;
(PID.TID 0000.0001) PTRACERS_ref = /* Reference vertical profile */
(PID.TID 0000.0001)    35 @  0.000000000000000E+00              /* K =  1: 35 */
(PID.TID 0000.0001)     ;
(PID.TID 0000.0001) PTRACERS_EvPrRn =/* tracer conc. in Evap. & Rain */
(PID.TID 0000.0001)                 1.234567000000000E+05
(PID.TID 0000.0001)     ;
(PID.TID 0000.0001)  -----------------------------------
(PID.TID 0000.0001)  tracer number :   35
(PID.TID 0000.0001) PTRACERS_names = /* Tracer short name */
(PID.TID 0000.0001)               'c18'
(PID.TID 0000.0001)     ;
(PID.TID 0000.0001) PTRACERS_long_names = /* Tracer long name */
(PID.TID 0000.0001)               ''
(PID.TID 0000.0001)     ;
(PID.TID 0000.0001) PTRACERS_ioLabel = /* tracer IO Label */
(PID.TID 0000.0001)               '35'
(PID.TID 0000.0001)     ;
(PID.TID 0000.0001) PTRACERS_advScheme = /* Advection Scheme */
(PID.TID 0000.0001)                      33
(PID.TID 0000.0001)     ;
(PID.TID 0000.0001) PTRACERS_SOM_Advection = /* tracer uses SOM advection scheme */
(PID.TID 0000.0001)                   F
(PID.TID 0000.0001)     ;
(PID.TID 0000.0001) PTRACERS_ImplVertAdv = /* implicit vert. advection flag */
(PID.TID 0000.0001)                   F
(PID.TID 0000.0001)     ;
(PID.TID 0000.0001) PTRACERS_diffKh = /* Laplacian Diffusivity */
(PID.TID 0000.0001)                 0.000000000000000E+00
(PID.TID 0000.0001)     ;
(PID.TID 0000.0001) PTRACERS_diffK4 = /* Biharmonic Diffusivity */
(PID.TID 0000.0001)                 0.000000000000000E+00
(PID.TID 0000.0001)     ;
(PID.TID 0000.0001) PTRACERS_diffKrNr = /* Vertical Diffusivity */
(PID.TID 0000.0001)    35 @  1.000000000000000E-05              /* K =  1: 35 */
(PID.TID 0000.0001)     ;
(PID.TID 0000.0001) PTRACERS_useGMRedi = /* apply GM-Redi */
(PID.TID 0000.0001)                   F
(PID.TID 0000.0001)     ;
(PID.TID 0000.0001) PTRACERS_useDWNSLP = /* apply DOWN-SLOPE Flow */
(PID.TID 0000.0001)                   F
(PID.TID 0000.0001)     ;
(PID.TID 0000.0001) PTRACERS_useKPP = /* apply KPP scheme */
(PID.TID 0000.0001)                   F
(PID.TID 0000.0001)     ;
(PID.TID 0000.0001) PTRACERS_ref = /* Reference vertical profile */
(PID.TID 0000.0001)    35 @  0.000000000000000E+00              /* K =  1: 35 */
(PID.TID 0000.0001)     ;
(PID.TID 0000.0001) PTRACERS_EvPrRn =/* tracer conc. in Evap. & Rain */
(PID.TID 0000.0001)                 1.234567000000000E+05
(PID.TID 0000.0001)     ;
(PID.TID 0000.0001)  -----------------------------------
(PID.TID 0000.0001)  tracer number :   36
(PID.TID 0000.0001) PTRACERS_names = /* Tracer short name */
(PID.TID 0000.0001)               'c19'
(PID.TID 0000.0001)     ;
(PID.TID 0000.0001) PTRACERS_long_names = /* Tracer long name */
(PID.TID 0000.0001)               ''
(PID.TID 0000.0001)     ;
(PID.TID 0000.0001) PTRACERS_ioLabel = /* tracer IO Label */
(PID.TID 0000.0001)               '36'
(PID.TID 0000.0001)     ;
(PID.TID 0000.0001) PTRACERS_advScheme = /* Advection Scheme */
(PID.TID 0000.0001)                      33
(PID.TID 0000.0001)     ;
(PID.TID 0000.0001) PTRACERS_SOM_Advection = /* tracer uses SOM advection scheme */
(PID.TID 0000.0001)                   F
(PID.TID 0000.0001)     ;
(PID.TID 0000.0001) PTRACERS_ImplVertAdv = /* implicit vert. advection flag */
(PID.TID 0000.0001)                   F
(PID.TID 0000.0001)     ;
(PID.TID 0000.0001) PTRACERS_diffKh = /* Laplacian Diffusivity */
(PID.TID 0000.0001)                 0.000000000000000E+00
(PID.TID 0000.0001)     ;
(PID.TID 0000.0001) PTRACERS_diffK4 = /* Biharmonic Diffusivity */
(PID.TID 0000.0001)                 0.000000000000000E+00
(PID.TID 0000.0001)     ;
(PID.TID 0000.0001) PTRACERS_diffKrNr = /* Vertical Diffusivity */
(PID.TID 0000.0001)    35 @  1.000000000000000E-05              /* K =  1: 35 */
(PID.TID 0000.0001)     ;
(PID.TID 0000.0001) PTRACERS_useGMRedi = /* apply GM-Redi */
(PID.TID 0000.0001)                   F
(PID.TID 0000.0001)     ;
(PID.TID 0000.0001) PTRACERS_useDWNSLP = /* apply DOWN-SLOPE Flow */
(PID.TID 0000.0001)                   F
(PID.TID 0000.0001)     ;
(PID.TID 0000.0001) PTRACERS_useKPP = /* apply KPP scheme */
(PID.TID 0000.0001)                   F
(PID.TID 0000.0001)     ;
(PID.TID 0000.0001) PTRACERS_ref = /* Reference vertical profile */
(PID.TID 0000.0001)    35 @  0.000000000000000E+00              /* K =  1: 35 */
(PID.TID 0000.0001)     ;
(PID.TID 0000.0001) PTRACERS_EvPrRn =/* tracer conc. in Evap. & Rain */
(PID.TID 0000.0001)                 1.234567000000000E+05
(PID.TID 0000.0001)     ;
(PID.TID 0000.0001)  -----------------------------------
(PID.TID 0000.0001)  tracer number :   37
(PID.TID 0000.0001) PTRACERS_names = /* Tracer short name */
(PID.TID 0000.0001)               'c20'
(PID.TID 0000.0001)     ;
(PID.TID 0000.0001) PTRACERS_long_names = /* Tracer long name */
(PID.TID 0000.0001)               ''
(PID.TID 0000.0001)     ;
(PID.TID 0000.0001) PTRACERS_ioLabel = /* tracer IO Label */
(PID.TID 0000.0001)               '37'
(PID.TID 0000.0001)     ;
(PID.TID 0000.0001) PTRACERS_advScheme = /* Advection Scheme */
(PID.TID 0000.0001)                      33
(PID.TID 0000.0001)     ;
(PID.TID 0000.0001) PTRACERS_SOM_Advection = /* tracer uses SOM advection scheme */
(PID.TID 0000.0001)                   F
(PID.TID 0000.0001)     ;
(PID.TID 0000.0001) PTRACERS_ImplVertAdv = /* implicit vert. advection flag */
(PID.TID 0000.0001)                   F
(PID.TID 0000.0001)     ;
(PID.TID 0000.0001) PTRACERS_diffKh = /* Laplacian Diffusivity */
(PID.TID 0000.0001)                 0.000000000000000E+00
(PID.TID 0000.0001)     ;
(PID.TID 0000.0001) PTRACERS_diffK4 = /* Biharmonic Diffusivity */
(PID.TID 0000.0001)                 0.000000000000000E+00
(PID.TID 0000.0001)     ;
(PID.TID 0000.0001) PTRACERS_diffKrNr = /* Vertical Diffusivity */
(PID.TID 0000.0001)    35 @  1.000000000000000E-05              /* K =  1: 35 */
(PID.TID 0000.0001)     ;
(PID.TID 0000.0001) PTRACERS_useGMRedi = /* apply GM-Redi */
(PID.TID 0000.0001)                   F
(PID.TID 0000.0001)     ;
(PID.TID 0000.0001) PTRACERS_useDWNSLP = /* apply DOWN-SLOPE Flow */
(PID.TID 0000.0001)                   F
(PID.TID 0000.0001)     ;
(PID.TID 0000.0001) PTRACERS_useKPP = /* apply KPP scheme */
(PID.TID 0000.0001)                   F
(PID.TID 0000.0001)     ;
(PID.TID 0000.0001) PTRACERS_ref = /* Reference vertical profile */
(PID.TID 0000.0001)    35 @  0.000000000000000E+00              /* K =  1: 35 */
(PID.TID 0000.0001)     ;
(PID.TID 0000.0001) PTRACERS_EvPrRn =/* tracer conc. in Evap. & Rain */
(PID.TID 0000.0001)                 1.234567000000000E+05
(PID.TID 0000.0001)     ;
(PID.TID 0000.0001)  -----------------------------------
(PID.TID 0000.0001)  tracer number :   38
(PID.TID 0000.0001) PTRACERS_names = /* Tracer short name */
(PID.TID 0000.0001)               'c21'
(PID.TID 0000.0001)     ;
(PID.TID 0000.0001) PTRACERS_long_names = /* Tracer long name */
(PID.TID 0000.0001)               ''
(PID.TID 0000.0001)     ;
(PID.TID 0000.0001) PTRACERS_ioLabel = /* tracer IO Label */
(PID.TID 0000.0001)               '38'
(PID.TID 0000.0001)     ;
(PID.TID 0000.0001) PTRACERS_advScheme = /* Advection Scheme */
(PID.TID 0000.0001)                      33
(PID.TID 0000.0001)     ;
(PID.TID 0000.0001) PTRACERS_SOM_Advection = /* tracer uses SOM advection scheme */
(PID.TID 0000.0001)                   F
(PID.TID 0000.0001)     ;
(PID.TID 0000.0001) PTRACERS_ImplVertAdv = /* implicit vert. advection flag */
(PID.TID 0000.0001)                   F
(PID.TID 0000.0001)     ;
(PID.TID 0000.0001) PTRACERS_diffKh = /* Laplacian Diffusivity */
(PID.TID 0000.0001)                 0.000000000000000E+00
(PID.TID 0000.0001)     ;
(PID.TID 0000.0001) PTRACERS_diffK4 = /* Biharmonic Diffusivity */
(PID.TID 0000.0001)                 0.000000000000000E+00
(PID.TID 0000.0001)     ;
(PID.TID 0000.0001) PTRACERS_diffKrNr = /* Vertical Diffusivity */
(PID.TID 0000.0001)    35 @  1.000000000000000E-05              /* K =  1: 35 */
(PID.TID 0000.0001)     ;
(PID.TID 0000.0001) PTRACERS_useGMRedi = /* apply GM-Redi */
(PID.TID 0000.0001)                   F
(PID.TID 0000.0001)     ;
(PID.TID 0000.0001) PTRACERS_useDWNSLP = /* apply DOWN-SLOPE Flow */
(PID.TID 0000.0001)                   F
(PID.TID 0000.0001)     ;
(PID.TID 0000.0001) PTRACERS_useKPP = /* apply KPP scheme */
(PID.TID 0000.0001)                   F
(PID.TID 0000.0001)     ;
(PID.TID 0000.0001) PTRACERS_ref = /* Reference vertical profile */
(PID.TID 0000.0001)    35 @  0.000000000000000E+00              /* K =  1: 35 */
(PID.TID 0000.0001)     ;
(PID.TID 0000.0001) PTRACERS_EvPrRn =/* tracer conc. in Evap. & Rain */
(PID.TID 0000.0001)                 1.234567000000000E+05
(PID.TID 0000.0001)     ;
(PID.TID 0000.0001)  -----------------------------------
(PID.TID 0000.0001)  tracer number :   39
(PID.TID 0000.0001) PTRACERS_names = /* Tracer short name */
(PID.TID 0000.0001)               'c22'
(PID.TID 0000.0001)     ;
(PID.TID 0000.0001) PTRACERS_long_names = /* Tracer long name */
(PID.TID 0000.0001)               ''
(PID.TID 0000.0001)     ;
(PID.TID 0000.0001) PTRACERS_ioLabel = /* tracer IO Label */
(PID.TID 0000.0001)               '39'
(PID.TID 0000.0001)     ;
(PID.TID 0000.0001) PTRACERS_advScheme = /* Advection Scheme */
(PID.TID 0000.0001)                      33
(PID.TID 0000.0001)     ;
(PID.TID 0000.0001) PTRACERS_SOM_Advection = /* tracer uses SOM advection scheme */
(PID.TID 0000.0001)                   F
(PID.TID 0000.0001)     ;
(PID.TID 0000.0001) PTRACERS_ImplVertAdv = /* implicit vert. advection flag */
(PID.TID 0000.0001)                   F
(PID.TID 0000.0001)     ;
(PID.TID 0000.0001) PTRACERS_diffKh = /* Laplacian Diffusivity */
(PID.TID 0000.0001)                 0.000000000000000E+00
(PID.TID 0000.0001)     ;
(PID.TID 0000.0001) PTRACERS_diffK4 = /* Biharmonic Diffusivity */
(PID.TID 0000.0001)                 0.000000000000000E+00
(PID.TID 0000.0001)     ;
(PID.TID 0000.0001) PTRACERS_diffKrNr = /* Vertical Diffusivity */
(PID.TID 0000.0001)    35 @  1.000000000000000E-05              /* K =  1: 35 */
(PID.TID 0000.0001)     ;
(PID.TID 0000.0001) PTRACERS_useGMRedi = /* apply GM-Redi */
(PID.TID 0000.0001)                   F
(PID.TID 0000.0001)     ;
(PID.TID 0000.0001) PTRACERS_useDWNSLP = /* apply DOWN-SLOPE Flow */
(PID.TID 0000.0001)                   F
(PID.TID 0000.0001)     ;
(PID.TID 0000.0001) PTRACERS_useKPP = /* apply KPP scheme */
(PID.TID 0000.0001)                   F
(PID.TID 0000.0001)     ;
(PID.TID 0000.0001) PTRACERS_ref = /* Reference vertical profile */
(PID.TID 0000.0001)    35 @  0.000000000000000E+00              /* K =  1: 35 */
(PID.TID 0000.0001)     ;
(PID.TID 0000.0001) PTRACERS_EvPrRn =/* tracer conc. in Evap. & Rain */
(PID.TID 0000.0001)                 1.234567000000000E+05
(PID.TID 0000.0001)     ;
(PID.TID 0000.0001)  -----------------------------------
(PID.TID 0000.0001)  tracer number :   40
(PID.TID 0000.0001) PTRACERS_names = /* Tracer short name */
(PID.TID 0000.0001)               'c23'
(PID.TID 0000.0001)     ;
(PID.TID 0000.0001) PTRACERS_long_names = /* Tracer long name */
(PID.TID 0000.0001)               ''
(PID.TID 0000.0001)     ;
(PID.TID 0000.0001) PTRACERS_ioLabel = /* tracer IO Label */
(PID.TID 0000.0001)               '40'
(PID.TID 0000.0001)     ;
(PID.TID 0000.0001) PTRACERS_advScheme = /* Advection Scheme */
(PID.TID 0000.0001)                      33
(PID.TID 0000.0001)     ;
(PID.TID 0000.0001) PTRACERS_SOM_Advection = /* tracer uses SOM advection scheme */
(PID.TID 0000.0001)                   F
(PID.TID 0000.0001)     ;
(PID.TID 0000.0001) PTRACERS_ImplVertAdv = /* implicit vert. advection flag */
(PID.TID 0000.0001)                   F
(PID.TID 0000.0001)     ;
(PID.TID 0000.0001) PTRACERS_diffKh = /* Laplacian Diffusivity */
(PID.TID 0000.0001)                 0.000000000000000E+00
(PID.TID 0000.0001)     ;
(PID.TID 0000.0001) PTRACERS_diffK4 = /* Biharmonic Diffusivity */
(PID.TID 0000.0001)                 0.000000000000000E+00
(PID.TID 0000.0001)     ;
(PID.TID 0000.0001) PTRACERS_diffKrNr = /* Vertical Diffusivity */
(PID.TID 0000.0001)    35 @  1.000000000000000E-05              /* K =  1: 35 */
(PID.TID 0000.0001)     ;
(PID.TID 0000.0001) PTRACERS_useGMRedi = /* apply GM-Redi */
(PID.TID 0000.0001)                   F
(PID.TID 0000.0001)     ;
(PID.TID 0000.0001) PTRACERS_useDWNSLP = /* apply DOWN-SLOPE Flow */
(PID.TID 0000.0001)                   F
(PID.TID 0000.0001)     ;
(PID.TID 0000.0001) PTRACERS_useKPP = /* apply KPP scheme */
(PID.TID 0000.0001)                   F
(PID.TID 0000.0001)     ;
(PID.TID 0000.0001) PTRACERS_ref = /* Reference vertical profile */
(PID.TID 0000.0001)    35 @  0.000000000000000E+00              /* K =  1: 35 */
(PID.TID 0000.0001)     ;
(PID.TID 0000.0001) PTRACERS_EvPrRn =/* tracer conc. in Evap. & Rain */
(PID.TID 0000.0001)                 1.234567000000000E+05
(PID.TID 0000.0001)     ;
(PID.TID 0000.0001)  -----------------------------------
(PID.TID 0000.0001)  tracer number :   41
(PID.TID 0000.0001) PTRACERS_names = /* Tracer short name */
(PID.TID 0000.0001)               'c24'
(PID.TID 0000.0001)     ;
(PID.TID 0000.0001) PTRACERS_long_names = /* Tracer long name */
(PID.TID 0000.0001)               ''
(PID.TID 0000.0001)     ;
(PID.TID 0000.0001) PTRACERS_ioLabel = /* tracer IO Label */
(PID.TID 0000.0001)               '41'
(PID.TID 0000.0001)     ;
(PID.TID 0000.0001) PTRACERS_advScheme = /* Advection Scheme */
(PID.TID 0000.0001)                      33
(PID.TID 0000.0001)     ;
(PID.TID 0000.0001) PTRACERS_SOM_Advection = /* tracer uses SOM advection scheme */
(PID.TID 0000.0001)                   F
(PID.TID 0000.0001)     ;
(PID.TID 0000.0001) PTRACERS_ImplVertAdv = /* implicit vert. advection flag */
(PID.TID 0000.0001)                   F
(PID.TID 0000.0001)     ;
(PID.TID 0000.0001) PTRACERS_diffKh = /* Laplacian Diffusivity */
(PID.TID 0000.0001)                 0.000000000000000E+00
(PID.TID 0000.0001)     ;
(PID.TID 0000.0001) PTRACERS_diffK4 = /* Biharmonic Diffusivity */
(PID.TID 0000.0001)                 0.000000000000000E+00
(PID.TID 0000.0001)     ;
(PID.TID 0000.0001) PTRACERS_diffKrNr = /* Vertical Diffusivity */
(PID.TID 0000.0001)    35 @  1.000000000000000E-05              /* K =  1: 35 */
(PID.TID 0000.0001)     ;
(PID.TID 0000.0001) PTRACERS_useGMRedi = /* apply GM-Redi */
(PID.TID 0000.0001)                   F
(PID.TID 0000.0001)     ;
(PID.TID 0000.0001) PTRACERS_useDWNSLP = /* apply DOWN-SLOPE Flow */
(PID.TID 0000.0001)                   F
(PID.TID 0000.0001)     ;
(PID.TID 0000.0001) PTRACERS_useKPP = /* apply KPP scheme */
(PID.TID 0000.0001)                   F
(PID.TID 0000.0001)     ;
(PID.TID 0000.0001) PTRACERS_ref = /* Reference vertical profile */
(PID.TID 0000.0001)    35 @  0.000000000000000E+00              /* K =  1: 35 */
(PID.TID 0000.0001)     ;
(PID.TID 0000.0001) PTRACERS_EvPrRn =/* tracer conc. in Evap. & Rain */
(PID.TID 0000.0001)                 1.234567000000000E+05
(PID.TID 0000.0001)     ;
(PID.TID 0000.0001)  -----------------------------------
(PID.TID 0000.0001)  tracer number :   42
(PID.TID 0000.0001) PTRACERS_names = /* Tracer short name */
(PID.TID 0000.0001)               'c25'
(PID.TID 0000.0001)     ;
(PID.TID 0000.0001) PTRACERS_long_names = /* Tracer long name */
(PID.TID 0000.0001)               ''
(PID.TID 0000.0001)     ;
(PID.TID 0000.0001) PTRACERS_ioLabel = /* tracer IO Label */
(PID.TID 0000.0001)               '42'
(PID.TID 0000.0001)     ;
(PID.TID 0000.0001) PTRACERS_advScheme = /* Advection Scheme */
(PID.TID 0000.0001)                      33
(PID.TID 0000.0001)     ;
(PID.TID 0000.0001) PTRACERS_SOM_Advection = /* tracer uses SOM advection scheme */
(PID.TID 0000.0001)                   F
(PID.TID 0000.0001)     ;
(PID.TID 0000.0001) PTRACERS_ImplVertAdv = /* implicit vert. advection flag */
(PID.TID 0000.0001)                   F
(PID.TID 0000.0001)     ;
(PID.TID 0000.0001) PTRACERS_diffKh = /* Laplacian Diffusivity */
(PID.TID 0000.0001)                 0.000000000000000E+00
(PID.TID 0000.0001)     ;
(PID.TID 0000.0001) PTRACERS_diffK4 = /* Biharmonic Diffusivity */
(PID.TID 0000.0001)                 0.000000000000000E+00
(PID.TID 0000.0001)     ;
(PID.TID 0000.0001) PTRACERS_diffKrNr = /* Vertical Diffusivity */
(PID.TID 0000.0001)    35 @  1.000000000000000E-05              /* K =  1: 35 */
(PID.TID 0000.0001)     ;
(PID.TID 0000.0001) PTRACERS_useGMRedi = /* apply GM-Redi */
(PID.TID 0000.0001)                   F
(PID.TID 0000.0001)     ;
(PID.TID 0000.0001) PTRACERS_useDWNSLP = /* apply DOWN-SLOPE Flow */
(PID.TID 0000.0001)                   F
(PID.TID 0000.0001)     ;
(PID.TID 0000.0001) PTRACERS_useKPP = /* apply KPP scheme */
(PID.TID 0000.0001)                   F
(PID.TID 0000.0001)     ;
(PID.TID 0000.0001) PTRACERS_ref = /* Reference vertical profile */
(PID.TID 0000.0001)    35 @  0.000000000000000E+00              /* K =  1: 35 */
(PID.TID 0000.0001)     ;
(PID.TID 0000.0001) PTRACERS_EvPrRn =/* tracer conc. in Evap. & Rain */
(PID.TID 0000.0001)                 1.234567000000000E+05
(PID.TID 0000.0001)     ;
(PID.TID 0000.0001)  -----------------------------------
(PID.TID 0000.0001)  tracer number :   43
(PID.TID 0000.0001) PTRACERS_names = /* Tracer short name */
(PID.TID 0000.0001)               'c26'
(PID.TID 0000.0001)     ;
(PID.TID 0000.0001) PTRACERS_long_names = /* Tracer long name */
(PID.TID 0000.0001)               ''
(PID.TID 0000.0001)     ;
(PID.TID 0000.0001) PTRACERS_ioLabel = /* tracer IO Label */
(PID.TID 0000.0001)               '43'
(PID.TID 0000.0001)     ;
(PID.TID 0000.0001) PTRACERS_advScheme = /* Advection Scheme */
(PID.TID 0000.0001)                      33
(PID.TID 0000.0001)     ;
(PID.TID 0000.0001) PTRACERS_SOM_Advection = /* tracer uses SOM advection scheme */
(PID.TID 0000.0001)                   F
(PID.TID 0000.0001)     ;
(PID.TID 0000.0001) PTRACERS_ImplVertAdv = /* implicit vert. advection flag */
(PID.TID 0000.0001)                   F
(PID.TID 0000.0001)     ;
(PID.TID 0000.0001) PTRACERS_diffKh = /* Laplacian Diffusivity */
(PID.TID 0000.0001)                 0.000000000000000E+00
(PID.TID 0000.0001)     ;
(PID.TID 0000.0001) PTRACERS_diffK4 = /* Biharmonic Diffusivity */
(PID.TID 0000.0001)                 0.000000000000000E+00
(PID.TID 0000.0001)     ;
(PID.TID 0000.0001) PTRACERS_diffKrNr = /* Vertical Diffusivity */
(PID.TID 0000.0001)    35 @  1.000000000000000E-05              /* K =  1: 35 */
(PID.TID 0000.0001)     ;
(PID.TID 0000.0001) PTRACERS_useGMRedi = /* apply GM-Redi */
(PID.TID 0000.0001)                   F
(PID.TID 0000.0001)     ;
(PID.TID 0000.0001) PTRACERS_useDWNSLP = /* apply DOWN-SLOPE Flow */
(PID.TID 0000.0001)                   F
(PID.TID 0000.0001)     ;
(PID.TID 0000.0001) PTRACERS_useKPP = /* apply KPP scheme */
(PID.TID 0000.0001)                   F
(PID.TID 0000.0001)     ;
(PID.TID 0000.0001) PTRACERS_ref = /* Reference vertical profile */
(PID.TID 0000.0001)    35 @  0.000000000000000E+00              /* K =  1: 35 */
(PID.TID 0000.0001)     ;
(PID.TID 0000.0001) PTRACERS_EvPrRn =/* tracer conc. in Evap. & Rain */
(PID.TID 0000.0001)                 1.234567000000000E+05
(PID.TID 0000.0001)     ;
(PID.TID 0000.0001)  -----------------------------------
(PID.TID 0000.0001)  tracer number :   44
(PID.TID 0000.0001) PTRACERS_names = /* Tracer short name */
(PID.TID 0000.0001)               'c27'
(PID.TID 0000.0001)     ;
(PID.TID 0000.0001) PTRACERS_long_names = /* Tracer long name */
(PID.TID 0000.0001)               ''
(PID.TID 0000.0001)     ;
(PID.TID 0000.0001) PTRACERS_ioLabel = /* tracer IO Label */
(PID.TID 0000.0001)               '44'
(PID.TID 0000.0001)     ;
(PID.TID 0000.0001) PTRACERS_advScheme = /* Advection Scheme */
(PID.TID 0000.0001)                      33
(PID.TID 0000.0001)     ;
(PID.TID 0000.0001) PTRACERS_SOM_Advection = /* tracer uses SOM advection scheme */
(PID.TID 0000.0001)                   F
(PID.TID 0000.0001)     ;
(PID.TID 0000.0001) PTRACERS_ImplVertAdv = /* implicit vert. advection flag */
(PID.TID 0000.0001)                   F
(PID.TID 0000.0001)     ;
(PID.TID 0000.0001) PTRACERS_diffKh = /* Laplacian Diffusivity */
(PID.TID 0000.0001)                 0.000000000000000E+00
(PID.TID 0000.0001)     ;
(PID.TID 0000.0001) PTRACERS_diffK4 = /* Biharmonic Diffusivity */
(PID.TID 0000.0001)                 0.000000000000000E+00
(PID.TID 0000.0001)     ;
(PID.TID 0000.0001) PTRACERS_diffKrNr = /* Vertical Diffusivity */
(PID.TID 0000.0001)    35 @  1.000000000000000E-05              /* K =  1: 35 */
(PID.TID 0000.0001)     ;
(PID.TID 0000.0001) PTRACERS_useGMRedi = /* apply GM-Redi */
(PID.TID 0000.0001)                   F
(PID.TID 0000.0001)     ;
(PID.TID 0000.0001) PTRACERS_useDWNSLP = /* apply DOWN-SLOPE Flow */
(PID.TID 0000.0001)                   F
(PID.TID 0000.0001)     ;
(PID.TID 0000.0001) PTRACERS_useKPP = /* apply KPP scheme */
(PID.TID 0000.0001)                   F
(PID.TID 0000.0001)     ;
(PID.TID 0000.0001) PTRACERS_ref = /* Reference vertical profile */
(PID.TID 0000.0001)    35 @  0.000000000000000E+00              /* K =  1: 35 */
(PID.TID 0000.0001)     ;
(PID.TID 0000.0001) PTRACERS_EvPrRn =/* tracer conc. in Evap. & Rain */
(PID.TID 0000.0001)                 1.234567000000000E+05
(PID.TID 0000.0001)     ;
(PID.TID 0000.0001)  -----------------------------------
(PID.TID 0000.0001)  tracer number :   45
(PID.TID 0000.0001) PTRACERS_names = /* Tracer short name */
(PID.TID 0000.0001)               'c28'
(PID.TID 0000.0001)     ;
(PID.TID 0000.0001) PTRACERS_long_names = /* Tracer long name */
(PID.TID 0000.0001)               ''
(PID.TID 0000.0001)     ;
(PID.TID 0000.0001) PTRACERS_ioLabel = /* tracer IO Label */
(PID.TID 0000.0001)               '45'
(PID.TID 0000.0001)     ;
(PID.TID 0000.0001) PTRACERS_advScheme = /* Advection Scheme */
(PID.TID 0000.0001)                      33
(PID.TID 0000.0001)     ;
(PID.TID 0000.0001) PTRACERS_SOM_Advection = /* tracer uses SOM advection scheme */
(PID.TID 0000.0001)                   F
(PID.TID 0000.0001)     ;
(PID.TID 0000.0001) PTRACERS_ImplVertAdv = /* implicit vert. advection flag */
(PID.TID 0000.0001)                   F
(PID.TID 0000.0001)     ;
(PID.TID 0000.0001) PTRACERS_diffKh = /* Laplacian Diffusivity */
(PID.TID 0000.0001)                 0.000000000000000E+00
(PID.TID 0000.0001)     ;
(PID.TID 0000.0001) PTRACERS_diffK4 = /* Biharmonic Diffusivity */
(PID.TID 0000.0001)                 0.000000000000000E+00
(PID.TID 0000.0001)     ;
(PID.TID 0000.0001) PTRACERS_diffKrNr = /* Vertical Diffusivity */
(PID.TID 0000.0001)    35 @  1.000000000000000E-05              /* K =  1: 35 */
(PID.TID 0000.0001)     ;
(PID.TID 0000.0001) PTRACERS_useGMRedi = /* apply GM-Redi */
(PID.TID 0000.0001)                   F
(PID.TID 0000.0001)     ;
(PID.TID 0000.0001) PTRACERS_useDWNSLP = /* apply DOWN-SLOPE Flow */
(PID.TID 0000.0001)                   F
(PID.TID 0000.0001)     ;
(PID.TID 0000.0001) PTRACERS_useKPP = /* apply KPP scheme */
(PID.TID 0000.0001)                   F
(PID.TID 0000.0001)     ;
(PID.TID 0000.0001) PTRACERS_ref = /* Reference vertical profile */
(PID.TID 0000.0001)    35 @  0.000000000000000E+00              /* K =  1: 35 */
(PID.TID 0000.0001)     ;
(PID.TID 0000.0001) PTRACERS_EvPrRn =/* tracer conc. in Evap. & Rain */
(PID.TID 0000.0001)                 1.234567000000000E+05
(PID.TID 0000.0001)     ;
(PID.TID 0000.0001)  -----------------------------------
(PID.TID 0000.0001)  tracer number :   46
(PID.TID 0000.0001) PTRACERS_names = /* Tracer short name */
(PID.TID 0000.0001)               'c29'
(PID.TID 0000.0001)     ;
(PID.TID 0000.0001) PTRACERS_long_names = /* Tracer long name */
(PID.TID 0000.0001)               ''
(PID.TID 0000.0001)     ;
(PID.TID 0000.0001) PTRACERS_ioLabel = /* tracer IO Label */
(PID.TID 0000.0001)               '46'
(PID.TID 0000.0001)     ;
(PID.TID 0000.0001) PTRACERS_advScheme = /* Advection Scheme */
(PID.TID 0000.0001)                      33
(PID.TID 0000.0001)     ;
(PID.TID 0000.0001) PTRACERS_SOM_Advection = /* tracer uses SOM advection scheme */
(PID.TID 0000.0001)                   F
(PID.TID 0000.0001)     ;
(PID.TID 0000.0001) PTRACERS_ImplVertAdv = /* implicit vert. advection flag */
(PID.TID 0000.0001)                   F
(PID.TID 0000.0001)     ;
(PID.TID 0000.0001) PTRACERS_diffKh = /* Laplacian Diffusivity */
(PID.TID 0000.0001)                 0.000000000000000E+00
(PID.TID 0000.0001)     ;
(PID.TID 0000.0001) PTRACERS_diffK4 = /* Biharmonic Diffusivity */
(PID.TID 0000.0001)                 0.000000000000000E+00
(PID.TID 0000.0001)     ;
(PID.TID 0000.0001) PTRACERS_diffKrNr = /* Vertical Diffusivity */
(PID.TID 0000.0001)    35 @  1.000000000000000E-05              /* K =  1: 35 */
(PID.TID 0000.0001)     ;
(PID.TID 0000.0001) PTRACERS_useGMRedi = /* apply GM-Redi */
(PID.TID 0000.0001)                   F
(PID.TID 0000.0001)     ;
(PID.TID 0000.0001) PTRACERS_useDWNSLP = /* apply DOWN-SLOPE Flow */
(PID.TID 0000.0001)                   F
(PID.TID 0000.0001)     ;
(PID.TID 0000.0001) PTRACERS_useKPP = /* apply KPP scheme */
(PID.TID 0000.0001)                   F
(PID.TID 0000.0001)     ;
(PID.TID 0000.0001) PTRACERS_ref = /* Reference vertical profile */
(PID.TID 0000.0001)    35 @  0.000000000000000E+00              /* K =  1: 35 */
(PID.TID 0000.0001)     ;
(PID.TID 0000.0001) PTRACERS_EvPrRn =/* tracer conc. in Evap. & Rain */
(PID.TID 0000.0001)                 1.234567000000000E+05
(PID.TID 0000.0001)     ;
(PID.TID 0000.0001)  -----------------------------------
(PID.TID 0000.0001)  tracer number :   47
(PID.TID 0000.0001) PTRACERS_names = /* Tracer short name */
(PID.TID 0000.0001)               'c30'
(PID.TID 0000.0001)     ;
(PID.TID 0000.0001) PTRACERS_long_names = /* Tracer long name */
(PID.TID 0000.0001)               ''
(PID.TID 0000.0001)     ;
(PID.TID 0000.0001) PTRACERS_ioLabel = /* tracer IO Label */
(PID.TID 0000.0001)               '47'
(PID.TID 0000.0001)     ;
(PID.TID 0000.0001) PTRACERS_advScheme = /* Advection Scheme */
(PID.TID 0000.0001)                      33
(PID.TID 0000.0001)     ;
(PID.TID 0000.0001) PTRACERS_SOM_Advection = /* tracer uses SOM advection scheme */
(PID.TID 0000.0001)                   F
(PID.TID 0000.0001)     ;
(PID.TID 0000.0001) PTRACERS_ImplVertAdv = /* implicit vert. advection flag */
(PID.TID 0000.0001)                   F
(PID.TID 0000.0001)     ;
(PID.TID 0000.0001) PTRACERS_diffKh = /* Laplacian Diffusivity */
(PID.TID 0000.0001)                 0.000000000000000E+00
(PID.TID 0000.0001)     ;
(PID.TID 0000.0001) PTRACERS_diffK4 = /* Biharmonic Diffusivity */
(PID.TID 0000.0001)                 0.000000000000000E+00
(PID.TID 0000.0001)     ;
(PID.TID 0000.0001) PTRACERS_diffKrNr = /* Vertical Diffusivity */
(PID.TID 0000.0001)    35 @  1.000000000000000E-05              /* K =  1: 35 */
(PID.TID 0000.0001)     ;
(PID.TID 0000.0001) PTRACERS_useGMRedi = /* apply GM-Redi */
(PID.TID 0000.0001)                   F
(PID.TID 0000.0001)     ;
(PID.TID 0000.0001) PTRACERS_useDWNSLP = /* apply DOWN-SLOPE Flow */
(PID.TID 0000.0001)                   F
(PID.TID 0000.0001)     ;
(PID.TID 0000.0001) PTRACERS_useKPP = /* apply KPP scheme */
(PID.TID 0000.0001)                   F
(PID.TID 0000.0001)     ;
(PID.TID 0000.0001) PTRACERS_ref = /* Reference vertical profile */
(PID.TID 0000.0001)    35 @  0.000000000000000E+00              /* K =  1: 35 */
(PID.TID 0000.0001)     ;
(PID.TID 0000.0001) PTRACERS_EvPrRn =/* tracer conc. in Evap. & Rain */
(PID.TID 0000.0001)                 1.234567000000000E+05
(PID.TID 0000.0001)     ;
(PID.TID 0000.0001)  -----------------------------------
(PID.TID 0000.0001)  tracer number :   48
(PID.TID 0000.0001) PTRACERS_names = /* Tracer short name */
(PID.TID 0000.0001)               'c31'
(PID.TID 0000.0001)     ;
(PID.TID 0000.0001) PTRACERS_long_names = /* Tracer long name */
(PID.TID 0000.0001)               ''
(PID.TID 0000.0001)     ;
(PID.TID 0000.0001) PTRACERS_ioLabel = /* tracer IO Label */
(PID.TID 0000.0001)               '48'
(PID.TID 0000.0001)     ;
(PID.TID 0000.0001) PTRACERS_advScheme = /* Advection Scheme */
(PID.TID 0000.0001)                      33
(PID.TID 0000.0001)     ;
(PID.TID 0000.0001) PTRACERS_SOM_Advection = /* tracer uses SOM advection scheme */
(PID.TID 0000.0001)                   F
(PID.TID 0000.0001)     ;
(PID.TID 0000.0001) PTRACERS_ImplVertAdv = /* implicit vert. advection flag */
(PID.TID 0000.0001)                   F
(PID.TID 0000.0001)     ;
(PID.TID 0000.0001) PTRACERS_diffKh = /* Laplacian Diffusivity */
(PID.TID 0000.0001)                 0.000000000000000E+00
(PID.TID 0000.0001)     ;
(PID.TID 0000.0001) PTRACERS_diffK4 = /* Biharmonic Diffusivity */
(PID.TID 0000.0001)                 0.000000000000000E+00
(PID.TID 0000.0001)     ;
(PID.TID 0000.0001) PTRACERS_diffKrNr = /* Vertical Diffusivity */
(PID.TID 0000.0001)    35 @  1.000000000000000E-05              /* K =  1: 35 */
(PID.TID 0000.0001)     ;
(PID.TID 0000.0001) PTRACERS_useGMRedi = /* apply GM-Redi */
(PID.TID 0000.0001)                   F
(PID.TID 0000.0001)     ;
(PID.TID 0000.0001) PTRACERS_useDWNSLP = /* apply DOWN-SLOPE Flow */
(PID.TID 0000.0001)                   F
(PID.TID 0000.0001)     ;
(PID.TID 0000.0001) PTRACERS_useKPP = /* apply KPP scheme */
(PID.TID 0000.0001)                   F
(PID.TID 0000.0001)     ;
(PID.TID 0000.0001) PTRACERS_ref = /* Reference vertical profile */
(PID.TID 0000.0001)    35 @  0.000000000000000E+00              /* K =  1: 35 */
(PID.TID 0000.0001)     ;
(PID.TID 0000.0001) PTRACERS_EvPrRn =/* tracer conc. in Evap. & Rain */
(PID.TID 0000.0001)                 1.234567000000000E+05
(PID.TID 0000.0001)     ;
(PID.TID 0000.0001)  -----------------------------------
(PID.TID 0000.0001)  tracer number :   49
(PID.TID 0000.0001) PTRACERS_names = /* Tracer short name */
(PID.TID 0000.0001)               'c32'
(PID.TID 0000.0001)     ;
(PID.TID 0000.0001) PTRACERS_long_names = /* Tracer long name */
(PID.TID 0000.0001)               ''
(PID.TID 0000.0001)     ;
(PID.TID 0000.0001) PTRACERS_ioLabel = /* tracer IO Label */
(PID.TID 0000.0001)               '49'
(PID.TID 0000.0001)     ;
(PID.TID 0000.0001) PTRACERS_advScheme = /* Advection Scheme */
(PID.TID 0000.0001)                      33
(PID.TID 0000.0001)     ;
(PID.TID 0000.0001) PTRACERS_SOM_Advection = /* tracer uses SOM advection scheme */
(PID.TID 0000.0001)                   F
(PID.TID 0000.0001)     ;
(PID.TID 0000.0001) PTRACERS_ImplVertAdv = /* implicit vert. advection flag */
(PID.TID 0000.0001)                   F
(PID.TID 0000.0001)     ;
(PID.TID 0000.0001) PTRACERS_diffKh = /* Laplacian Diffusivity */
(PID.TID 0000.0001)                 0.000000000000000E+00
(PID.TID 0000.0001)     ;
(PID.TID 0000.0001) PTRACERS_diffK4 = /* Biharmonic Diffusivity */
(PID.TID 0000.0001)                 0.000000000000000E+00
(PID.TID 0000.0001)     ;
(PID.TID 0000.0001) PTRACERS_diffKrNr = /* Vertical Diffusivity */
(PID.TID 0000.0001)    35 @  1.000000000000000E-05              /* K =  1: 35 */
(PID.TID 0000.0001)     ;
(PID.TID 0000.0001) PTRACERS_useGMRedi = /* apply GM-Redi */
(PID.TID 0000.0001)                   F
(PID.TID 0000.0001)     ;
(PID.TID 0000.0001) PTRACERS_useDWNSLP = /* apply DOWN-SLOPE Flow */
(PID.TID 0000.0001)                   F
(PID.TID 0000.0001)     ;
(PID.TID 0000.0001) PTRACERS_useKPP = /* apply KPP scheme */
(PID.TID 0000.0001)                   F
(PID.TID 0000.0001)     ;
(PID.TID 0000.0001) PTRACERS_ref = /* Reference vertical profile */
(PID.TID 0000.0001)    35 @  0.000000000000000E+00              /* K =  1: 35 */
(PID.TID 0000.0001)     ;
(PID.TID 0000.0001) PTRACERS_EvPrRn =/* tracer conc. in Evap. & Rain */
(PID.TID 0000.0001)                 1.234567000000000E+05
(PID.TID 0000.0001)     ;
(PID.TID 0000.0001)  -----------------------------------
(PID.TID 0000.0001)  tracer number :   50
(PID.TID 0000.0001) PTRACERS_names = /* Tracer short name */
(PID.TID 0000.0001)               'c33'
(PID.TID 0000.0001)     ;
(PID.TID 0000.0001) PTRACERS_long_names = /* Tracer long name */
(PID.TID 0000.0001)               ''
(PID.TID 0000.0001)     ;
(PID.TID 0000.0001) PTRACERS_ioLabel = /* tracer IO Label */
(PID.TID 0000.0001)               '50'
(PID.TID 0000.0001)     ;
(PID.TID 0000.0001) PTRACERS_advScheme = /* Advection Scheme */
(PID.TID 0000.0001)                      33
(PID.TID 0000.0001)     ;
(PID.TID 0000.0001) PTRACERS_SOM_Advection = /* tracer uses SOM advection scheme */
(PID.TID 0000.0001)                   F
(PID.TID 0000.0001)     ;
(PID.TID 0000.0001) PTRACERS_ImplVertAdv = /* implicit vert. advection flag */
(PID.TID 0000.0001)                   F
(PID.TID 0000.0001)     ;
(PID.TID 0000.0001) PTRACERS_diffKh = /* Laplacian Diffusivity */
(PID.TID 0000.0001)                 0.000000000000000E+00
(PID.TID 0000.0001)     ;
(PID.TID 0000.0001) PTRACERS_diffK4 = /* Biharmonic Diffusivity */
(PID.TID 0000.0001)                 0.000000000000000E+00
(PID.TID 0000.0001)     ;
(PID.TID 0000.0001) PTRACERS_diffKrNr = /* Vertical Diffusivity */
(PID.TID 0000.0001)    35 @  1.000000000000000E-05              /* K =  1: 35 */
(PID.TID 0000.0001)     ;
(PID.TID 0000.0001) PTRACERS_useGMRedi = /* apply GM-Redi */
(PID.TID 0000.0001)                   F
(PID.TID 0000.0001)     ;
(PID.TID 0000.0001) PTRACERS_useDWNSLP = /* apply DOWN-SLOPE Flow */
(PID.TID 0000.0001)                   F
(PID.TID 0000.0001)     ;
(PID.TID 0000.0001) PTRACERS_useKPP = /* apply KPP scheme */
(PID.TID 0000.0001)                   F
(PID.TID 0000.0001)     ;
(PID.TID 0000.0001) PTRACERS_ref = /* Reference vertical profile */
(PID.TID 0000.0001)    35 @  0.000000000000000E+00              /* K =  1: 35 */
(PID.TID 0000.0001)     ;
(PID.TID 0000.0001) PTRACERS_EvPrRn =/* tracer conc. in Evap. & Rain */
(PID.TID 0000.0001)                 1.234567000000000E+05
(PID.TID 0000.0001)     ;
(PID.TID 0000.0001)  -----------------------------------
(PID.TID 0000.0001)  tracer number :   51
(PID.TID 0000.0001) PTRACERS_names = /* Tracer short name */
(PID.TID 0000.0001)               'c34'
(PID.TID 0000.0001)     ;
(PID.TID 0000.0001) PTRACERS_long_names = /* Tracer long name */
(PID.TID 0000.0001)               ''
(PID.TID 0000.0001)     ;
(PID.TID 0000.0001) PTRACERS_ioLabel = /* tracer IO Label */
(PID.TID 0000.0001)               '51'
(PID.TID 0000.0001)     ;
(PID.TID 0000.0001) PTRACERS_advScheme = /* Advection Scheme */
(PID.TID 0000.0001)                      33
(PID.TID 0000.0001)     ;
(PID.TID 0000.0001) PTRACERS_SOM_Advection = /* tracer uses SOM advection scheme */
(PID.TID 0000.0001)                   F
(PID.TID 0000.0001)     ;
(PID.TID 0000.0001) PTRACERS_ImplVertAdv = /* implicit vert. advection flag */
(PID.TID 0000.0001)                   F
(PID.TID 0000.0001)     ;
(PID.TID 0000.0001) PTRACERS_diffKh = /* Laplacian Diffusivity */
(PID.TID 0000.0001)                 0.000000000000000E+00
(PID.TID 0000.0001)     ;
(PID.TID 0000.0001) PTRACERS_diffK4 = /* Biharmonic Diffusivity */
(PID.TID 0000.0001)                 0.000000000000000E+00
(PID.TID 0000.0001)     ;
(PID.TID 0000.0001) PTRACERS_diffKrNr = /* Vertical Diffusivity */
(PID.TID 0000.0001)    35 @  1.000000000000000E-05              /* K =  1: 35 */
(PID.TID 0000.0001)     ;
(PID.TID 0000.0001) PTRACERS_useGMRedi = /* apply GM-Redi */
(PID.TID 0000.0001)                   F
(PID.TID 0000.0001)     ;
(PID.TID 0000.0001) PTRACERS_useDWNSLP = /* apply DOWN-SLOPE Flow */
(PID.TID 0000.0001)                   F
(PID.TID 0000.0001)     ;
(PID.TID 0000.0001) PTRACERS_useKPP = /* apply KPP scheme */
(PID.TID 0000.0001)                   F
(PID.TID 0000.0001)     ;
(PID.TID 0000.0001) PTRACERS_ref = /* Reference vertical profile */
(PID.TID 0000.0001)    35 @  0.000000000000000E+00              /* K =  1: 35 */
(PID.TID 0000.0001)     ;
(PID.TID 0000.0001) PTRACERS_EvPrRn =/* tracer conc. in Evap. & Rain */
(PID.TID 0000.0001)                 1.234567000000000E+05
(PID.TID 0000.0001)     ;
(PID.TID 0000.0001)  -----------------------------------
(PID.TID 0000.0001)  tracer number :   52
(PID.TID 0000.0001) PTRACERS_names = /* Tracer short name */
(PID.TID 0000.0001)               'c35'
(PID.TID 0000.0001)     ;
(PID.TID 0000.0001) PTRACERS_long_names = /* Tracer long name */
(PID.TID 0000.0001)               ''
(PID.TID 0000.0001)     ;
(PID.TID 0000.0001) PTRACERS_ioLabel = /* tracer IO Label */
(PID.TID 0000.0001)               '52'
(PID.TID 0000.0001)     ;
(PID.TID 0000.0001) PTRACERS_advScheme = /* Advection Scheme */
(PID.TID 0000.0001)                      33
(PID.TID 0000.0001)     ;
(PID.TID 0000.0001) PTRACERS_SOM_Advection = /* tracer uses SOM advection scheme */
(PID.TID 0000.0001)                   F
(PID.TID 0000.0001)     ;
(PID.TID 0000.0001) PTRACERS_ImplVertAdv = /* implicit vert. advection flag */
(PID.TID 0000.0001)                   F
(PID.TID 0000.0001)     ;
(PID.TID 0000.0001) PTRACERS_diffKh = /* Laplacian Diffusivity */
(PID.TID 0000.0001)                 0.000000000000000E+00
(PID.TID 0000.0001)     ;
(PID.TID 0000.0001) PTRACERS_diffK4 = /* Biharmonic Diffusivity */
(PID.TID 0000.0001)                 0.000000000000000E+00
(PID.TID 0000.0001)     ;
(PID.TID 0000.0001) PTRACERS_diffKrNr = /* Vertical Diffusivity */
(PID.TID 0000.0001)    35 @  1.000000000000000E-05              /* K =  1: 35 */
(PID.TID 0000.0001)     ;
(PID.TID 0000.0001) PTRACERS_useGMRedi = /* apply GM-Redi */
(PID.TID 0000.0001)                   F
(PID.TID 0000.0001)     ;
(PID.TID 0000.0001) PTRACERS_useDWNSLP = /* apply DOWN-SLOPE Flow */
(PID.TID 0000.0001)                   F
(PID.TID 0000.0001)     ;
(PID.TID 0000.0001) PTRACERS_useKPP = /* apply KPP scheme */
(PID.TID 0000.0001)                   F
(PID.TID 0000.0001)     ;
(PID.TID 0000.0001) PTRACERS_ref = /* Reference vertical profile */
(PID.TID 0000.0001)    35 @  0.000000000000000E+00              /* K =  1: 35 */
(PID.TID 0000.0001)     ;
(PID.TID 0000.0001) PTRACERS_EvPrRn =/* tracer conc. in Evap. & Rain */
(PID.TID 0000.0001)                 1.234567000000000E+05
(PID.TID 0000.0001)     ;
(PID.TID 0000.0001)  -----------------------------------
(PID.TID 0000.0001)  tracer number :   53
(PID.TID 0000.0001) PTRACERS_names = /* Tracer short name */
(PID.TID 0000.0001)               'c36'
(PID.TID 0000.0001)     ;
(PID.TID 0000.0001) PTRACERS_long_names = /* Tracer long name */
(PID.TID 0000.0001)               ''
(PID.TID 0000.0001)     ;
(PID.TID 0000.0001) PTRACERS_ioLabel = /* tracer IO Label */
(PID.TID 0000.0001)               '53'
(PID.TID 0000.0001)     ;
(PID.TID 0000.0001) PTRACERS_advScheme = /* Advection Scheme */
(PID.TID 0000.0001)                      33
(PID.TID 0000.0001)     ;
(PID.TID 0000.0001) PTRACERS_SOM_Advection = /* tracer uses SOM advection scheme */
(PID.TID 0000.0001)                   F
(PID.TID 0000.0001)     ;
(PID.TID 0000.0001) PTRACERS_ImplVertAdv = /* implicit vert. advection flag */
(PID.TID 0000.0001)                   F
(PID.TID 0000.0001)     ;
(PID.TID 0000.0001) PTRACERS_diffKh = /* Laplacian Diffusivity */
(PID.TID 0000.0001)                 0.000000000000000E+00
(PID.TID 0000.0001)     ;
(PID.TID 0000.0001) PTRACERS_diffK4 = /* Biharmonic Diffusivity */
(PID.TID 0000.0001)                 0.000000000000000E+00
(PID.TID 0000.0001)     ;
(PID.TID 0000.0001) PTRACERS_diffKrNr = /* Vertical Diffusivity */
(PID.TID 0000.0001)    35 @  1.000000000000000E-05              /* K =  1: 35 */
(PID.TID 0000.0001)     ;
(PID.TID 0000.0001) PTRACERS_useGMRedi = /* apply GM-Redi */
(PID.TID 0000.0001)                   F
(PID.TID 0000.0001)     ;
(PID.TID 0000.0001) PTRACERS_useDWNSLP = /* apply DOWN-SLOPE Flow */
(PID.TID 0000.0001)                   F
(PID.TID 0000.0001)     ;
(PID.TID 0000.0001) PTRACERS_useKPP = /* apply KPP scheme */
(PID.TID 0000.0001)                   F
(PID.TID 0000.0001)     ;
(PID.TID 0000.0001) PTRACERS_ref = /* Reference vertical profile */
(PID.TID 0000.0001)    35 @  0.000000000000000E+00              /* K =  1: 35 */
(PID.TID 0000.0001)     ;
(PID.TID 0000.0001) PTRACERS_EvPrRn =/* tracer conc. in Evap. & Rain */
(PID.TID 0000.0001)                 1.234567000000000E+05
(PID.TID 0000.0001)     ;
(PID.TID 0000.0001)  -----------------------------------
(PID.TID 0000.0001)  tracer number :   54
(PID.TID 0000.0001) PTRACERS_names = /* Tracer short name */
(PID.TID 0000.0001)               'c37'
(PID.TID 0000.0001)     ;
(PID.TID 0000.0001) PTRACERS_long_names = /* Tracer long name */
(PID.TID 0000.0001)               ''
(PID.TID 0000.0001)     ;
(PID.TID 0000.0001) PTRACERS_ioLabel = /* tracer IO Label */
(PID.TID 0000.0001)               '54'
(PID.TID 0000.0001)     ;
(PID.TID 0000.0001) PTRACERS_advScheme = /* Advection Scheme */
(PID.TID 0000.0001)                      33
(PID.TID 0000.0001)     ;
(PID.TID 0000.0001) PTRACERS_SOM_Advection = /* tracer uses SOM advection scheme */
(PID.TID 0000.0001)                   F
(PID.TID 0000.0001)     ;
(PID.TID 0000.0001) PTRACERS_ImplVertAdv = /* implicit vert. advection flag */
(PID.TID 0000.0001)                   F
(PID.TID 0000.0001)     ;
(PID.TID 0000.0001) PTRACERS_diffKh = /* Laplacian Diffusivity */
(PID.TID 0000.0001)                 0.000000000000000E+00
(PID.TID 0000.0001)     ;
(PID.TID 0000.0001) PTRACERS_diffK4 = /* Biharmonic Diffusivity */
(PID.TID 0000.0001)                 0.000000000000000E+00
(PID.TID 0000.0001)     ;
(PID.TID 0000.0001) PTRACERS_diffKrNr = /* Vertical Diffusivity */
(PID.TID 0000.0001)    35 @  1.000000000000000E-05              /* K =  1: 35 */
(PID.TID 0000.0001)     ;
(PID.TID 0000.0001) PTRACERS_useGMRedi = /* apply GM-Redi */
(PID.TID 0000.0001)                   F
(PID.TID 0000.0001)     ;
(PID.TID 0000.0001) PTRACERS_useDWNSLP = /* apply DOWN-SLOPE Flow */
(PID.TID 0000.0001)                   F
(PID.TID 0000.0001)     ;
(PID.TID 0000.0001) PTRACERS_useKPP = /* apply KPP scheme */
(PID.TID 0000.0001)                   F
(PID.TID 0000.0001)     ;
(PID.TID 0000.0001) PTRACERS_ref = /* Reference vertical profile */
(PID.TID 0000.0001)    35 @  0.000000000000000E+00              /* K =  1: 35 */
(PID.TID 0000.0001)     ;
(PID.TID 0000.0001) PTRACERS_EvPrRn =/* tracer conc. in Evap. & Rain */
(PID.TID 0000.0001)                 1.234567000000000E+05
(PID.TID 0000.0001)     ;
(PID.TID 0000.0001)  -----------------------------------
(PID.TID 0000.0001)  tracer number :   55
(PID.TID 0000.0001) PTRACERS_names = /* Tracer short name */
(PID.TID 0000.0001)               'c38'
(PID.TID 0000.0001)     ;
(PID.TID 0000.0001) PTRACERS_long_names = /* Tracer long name */
(PID.TID 0000.0001)               ''
(PID.TID 0000.0001)     ;
(PID.TID 0000.0001) PTRACERS_ioLabel = /* tracer IO Label */
(PID.TID 0000.0001)               '55'
(PID.TID 0000.0001)     ;
(PID.TID 0000.0001) PTRACERS_advScheme = /* Advection Scheme */
(PID.TID 0000.0001)                      33
(PID.TID 0000.0001)     ;
(PID.TID 0000.0001) PTRACERS_SOM_Advection = /* tracer uses SOM advection scheme */
(PID.TID 0000.0001)                   F
(PID.TID 0000.0001)     ;
(PID.TID 0000.0001) PTRACERS_ImplVertAdv = /* implicit vert. advection flag */
(PID.TID 0000.0001)                   F
(PID.TID 0000.0001)     ;
(PID.TID 0000.0001) PTRACERS_diffKh = /* Laplacian Diffusivity */
(PID.TID 0000.0001)                 0.000000000000000E+00
(PID.TID 0000.0001)     ;
(PID.TID 0000.0001) PTRACERS_diffK4 = /* Biharmonic Diffusivity */
(PID.TID 0000.0001)                 0.000000000000000E+00
(PID.TID 0000.0001)     ;
(PID.TID 0000.0001) PTRACERS_diffKrNr = /* Vertical Diffusivity */
(PID.TID 0000.0001)    35 @  1.000000000000000E-05              /* K =  1: 35 */
(PID.TID 0000.0001)     ;
(PID.TID 0000.0001) PTRACERS_useGMRedi = /* apply GM-Redi */
(PID.TID 0000.0001)                   F
(PID.TID 0000.0001)     ;
(PID.TID 0000.0001) PTRACERS_useDWNSLP = /* apply DOWN-SLOPE Flow */
(PID.TID 0000.0001)                   F
(PID.TID 0000.0001)     ;
(PID.TID 0000.0001) PTRACERS_useKPP = /* apply KPP scheme */
(PID.TID 0000.0001)                   F
(PID.TID 0000.0001)     ;
(PID.TID 0000.0001) PTRACERS_ref = /* Reference vertical profile */
(PID.TID 0000.0001)    35 @  0.000000000000000E+00              /* K =  1: 35 */
(PID.TID 0000.0001)     ;
(PID.TID 0000.0001) PTRACERS_EvPrRn =/* tracer conc. in Evap. & Rain */
(PID.TID 0000.0001)                 1.234567000000000E+05
(PID.TID 0000.0001)     ;
(PID.TID 0000.0001)  -----------------------------------
(PID.TID 0000.0001)  tracer number :   56
(PID.TID 0000.0001) PTRACERS_names = /* Tracer short name */
(PID.TID 0000.0001)               'c39'
(PID.TID 0000.0001)     ;
(PID.TID 0000.0001) PTRACERS_long_names = /* Tracer long name */
(PID.TID 0000.0001)               ''
(PID.TID 0000.0001)     ;
(PID.TID 0000.0001) PTRACERS_ioLabel = /* tracer IO Label */
(PID.TID 0000.0001)               '56'
(PID.TID 0000.0001)     ;
(PID.TID 0000.0001) PTRACERS_advScheme = /* Advection Scheme */
(PID.TID 0000.0001)                      33
(PID.TID 0000.0001)     ;
(PID.TID 0000.0001) PTRACERS_SOM_Advection = /* tracer uses SOM advection scheme */
(PID.TID 0000.0001)                   F
(PID.TID 0000.0001)     ;
(PID.TID 0000.0001) PTRACERS_ImplVertAdv = /* implicit vert. advection flag */
(PID.TID 0000.0001)                   F
(PID.TID 0000.0001)     ;
(PID.TID 0000.0001) PTRACERS_diffKh = /* Laplacian Diffusivity */
(PID.TID 0000.0001)                 0.000000000000000E+00
(PID.TID 0000.0001)     ;
(PID.TID 0000.0001) PTRACERS_diffK4 = /* Biharmonic Diffusivity */
(PID.TID 0000.0001)                 0.000000000000000E+00
(PID.TID 0000.0001)     ;
(PID.TID 0000.0001) PTRACERS_diffKrNr = /* Vertical Diffusivity */
(PID.TID 0000.0001)    35 @  1.000000000000000E-05              /* K =  1: 35 */
(PID.TID 0000.0001)     ;
(PID.TID 0000.0001) PTRACERS_useGMRedi = /* apply GM-Redi */
(PID.TID 0000.0001)                   F
(PID.TID 0000.0001)     ;
(PID.TID 0000.0001) PTRACERS_useDWNSLP = /* apply DOWN-SLOPE Flow */
(PID.TID 0000.0001)                   F
(PID.TID 0000.0001)     ;
(PID.TID 0000.0001) PTRACERS_useKPP = /* apply KPP scheme */
(PID.TID 0000.0001)                   F
(PID.TID 0000.0001)     ;
(PID.TID 0000.0001) PTRACERS_ref = /* Reference vertical profile */
(PID.TID 0000.0001)    35 @  0.000000000000000E+00              /* K =  1: 35 */
(PID.TID 0000.0001)     ;
(PID.TID 0000.0001) PTRACERS_EvPrRn =/* tracer conc. in Evap. & Rain */
(PID.TID 0000.0001)                 1.234567000000000E+05
(PID.TID 0000.0001)     ;
(PID.TID 0000.0001)  -----------------------------------
(PID.TID 0000.0001)  tracer number :   57
(PID.TID 0000.0001) PTRACERS_names = /* Tracer short name */
(PID.TID 0000.0001)               'c40'
(PID.TID 0000.0001)     ;
(PID.TID 0000.0001) PTRACERS_long_names = /* Tracer long name */
(PID.TID 0000.0001)               ''
(PID.TID 0000.0001)     ;
(PID.TID 0000.0001) PTRACERS_ioLabel = /* tracer IO Label */
(PID.TID 0000.0001)               '57'
(PID.TID 0000.0001)     ;
(PID.TID 0000.0001) PTRACERS_advScheme = /* Advection Scheme */
(PID.TID 0000.0001)                      33
(PID.TID 0000.0001)     ;
(PID.TID 0000.0001) PTRACERS_SOM_Advection = /* tracer uses SOM advection scheme */
(PID.TID 0000.0001)                   F
(PID.TID 0000.0001)     ;
(PID.TID 0000.0001) PTRACERS_ImplVertAdv = /* implicit vert. advection flag */
(PID.TID 0000.0001)                   F
(PID.TID 0000.0001)     ;
(PID.TID 0000.0001) PTRACERS_diffKh = /* Laplacian Diffusivity */
(PID.TID 0000.0001)                 0.000000000000000E+00
(PID.TID 0000.0001)     ;
(PID.TID 0000.0001) PTRACERS_diffK4 = /* Biharmonic Diffusivity */
(PID.TID 0000.0001)                 0.000000000000000E+00
(PID.TID 0000.0001)     ;
(PID.TID 0000.0001) PTRACERS_diffKrNr = /* Vertical Diffusivity */
(PID.TID 0000.0001)    35 @  1.000000000000000E-05              /* K =  1: 35 */
(PID.TID 0000.0001)     ;
(PID.TID 0000.0001) PTRACERS_useGMRedi = /* apply GM-Redi */
(PID.TID 0000.0001)                   F
(PID.TID 0000.0001)     ;
(PID.TID 0000.0001) PTRACERS_useDWNSLP = /* apply DOWN-SLOPE Flow */
(PID.TID 0000.0001)                   F
(PID.TID 0000.0001)     ;
(PID.TID 0000.0001) PTRACERS_useKPP = /* apply KPP scheme */
(PID.TID 0000.0001)                   F
(PID.TID 0000.0001)     ;
(PID.TID 0000.0001) PTRACERS_ref = /* Reference vertical profile */
(PID.TID 0000.0001)    35 @  0.000000000000000E+00              /* K =  1: 35 */
(PID.TID 0000.0001)     ;
(PID.TID 0000.0001) PTRACERS_EvPrRn =/* tracer conc. in Evap. & Rain */
(PID.TID 0000.0001)                 1.234567000000000E+05
(PID.TID 0000.0001)     ;
(PID.TID 0000.0001)  -----------------------------------
(PID.TID 0000.0001)  tracer number :   58
(PID.TID 0000.0001) PTRACERS_names = /* Tracer short name */
(PID.TID 0000.0001)               'c41'
(PID.TID 0000.0001)     ;
(PID.TID 0000.0001) PTRACERS_long_names = /* Tracer long name */
(PID.TID 0000.0001)               ''
(PID.TID 0000.0001)     ;
(PID.TID 0000.0001) PTRACERS_ioLabel = /* tracer IO Label */
(PID.TID 0000.0001)               '58'
(PID.TID 0000.0001)     ;
(PID.TID 0000.0001) PTRACERS_advScheme = /* Advection Scheme */
(PID.TID 0000.0001)                      33
(PID.TID 0000.0001)     ;
(PID.TID 0000.0001) PTRACERS_SOM_Advection = /* tracer uses SOM advection scheme */
(PID.TID 0000.0001)                   F
(PID.TID 0000.0001)     ;
(PID.TID 0000.0001) PTRACERS_ImplVertAdv = /* implicit vert. advection flag */
(PID.TID 0000.0001)                   F
(PID.TID 0000.0001)     ;
(PID.TID 0000.0001) PTRACERS_diffKh = /* Laplacian Diffusivity */
(PID.TID 0000.0001)                 0.000000000000000E+00
(PID.TID 0000.0001)     ;
(PID.TID 0000.0001) PTRACERS_diffK4 = /* Biharmonic Diffusivity */
(PID.TID 0000.0001)                 0.000000000000000E+00
(PID.TID 0000.0001)     ;
(PID.TID 0000.0001) PTRACERS_diffKrNr = /* Vertical Diffusivity */
(PID.TID 0000.0001)    35 @  1.000000000000000E-05              /* K =  1: 35 */
(PID.TID 0000.0001)     ;
(PID.TID 0000.0001) PTRACERS_useGMRedi = /* apply GM-Redi */
(PID.TID 0000.0001)                   F
(PID.TID 0000.0001)     ;
(PID.TID 0000.0001) PTRACERS_useDWNSLP = /* apply DOWN-SLOPE Flow */
(PID.TID 0000.0001)                   F
(PID.TID 0000.0001)     ;
(PID.TID 0000.0001) PTRACERS_useKPP = /* apply KPP scheme */
(PID.TID 0000.0001)                   F
(PID.TID 0000.0001)     ;
(PID.TID 0000.0001) PTRACERS_ref = /* Reference vertical profile */
(PID.TID 0000.0001)    35 @  0.000000000000000E+00              /* K =  1: 35 */
(PID.TID 0000.0001)     ;
(PID.TID 0000.0001) PTRACERS_EvPrRn =/* tracer conc. in Evap. & Rain */
(PID.TID 0000.0001)                 1.234567000000000E+05
(PID.TID 0000.0001)     ;
(PID.TID 0000.0001)  -----------------------------------
(PID.TID 0000.0001)  tracer number :   59
(PID.TID 0000.0001) PTRACERS_names = /* Tracer short name */
(PID.TID 0000.0001)               'c42'
(PID.TID 0000.0001)     ;
(PID.TID 0000.0001) PTRACERS_long_names = /* Tracer long name */
(PID.TID 0000.0001)               ''
(PID.TID 0000.0001)     ;
(PID.TID 0000.0001) PTRACERS_ioLabel = /* tracer IO Label */
(PID.TID 0000.0001)               '59'
(PID.TID 0000.0001)     ;
(PID.TID 0000.0001) PTRACERS_advScheme = /* Advection Scheme */
(PID.TID 0000.0001)                      33
(PID.TID 0000.0001)     ;
(PID.TID 0000.0001) PTRACERS_SOM_Advection = /* tracer uses SOM advection scheme */
(PID.TID 0000.0001)                   F
(PID.TID 0000.0001)     ;
(PID.TID 0000.0001) PTRACERS_ImplVertAdv = /* implicit vert. advection flag */
(PID.TID 0000.0001)                   F
(PID.TID 0000.0001)     ;
(PID.TID 0000.0001) PTRACERS_diffKh = /* Laplacian Diffusivity */
(PID.TID 0000.0001)                 0.000000000000000E+00
(PID.TID 0000.0001)     ;
(PID.TID 0000.0001) PTRACERS_diffK4 = /* Biharmonic Diffusivity */
(PID.TID 0000.0001)                 0.000000000000000E+00
(PID.TID 0000.0001)     ;
(PID.TID 0000.0001) PTRACERS_diffKrNr = /* Vertical Diffusivity */
(PID.TID 0000.0001)    35 @  1.000000000000000E-05              /* K =  1: 35 */
(PID.TID 0000.0001)     ;
(PID.TID 0000.0001) PTRACERS_useGMRedi = /* apply GM-Redi */
(PID.TID 0000.0001)                   F
(PID.TID 0000.0001)     ;
(PID.TID 0000.0001) PTRACERS_useDWNSLP = /* apply DOWN-SLOPE Flow */
(PID.TID 0000.0001)                   F
(PID.TID 0000.0001)     ;
(PID.TID 0000.0001) PTRACERS_useKPP = /* apply KPP scheme */
(PID.TID 0000.0001)                   F
(PID.TID 0000.0001)     ;
(PID.TID 0000.0001) PTRACERS_ref = /* Reference vertical profile */
(PID.TID 0000.0001)    35 @  0.000000000000000E+00              /* K =  1: 35 */
(PID.TID 0000.0001)     ;
(PID.TID 0000.0001) PTRACERS_EvPrRn =/* tracer conc. in Evap. & Rain */
(PID.TID 0000.0001)                 1.234567000000000E+05
(PID.TID 0000.0001)     ;
(PID.TID 0000.0001)  -----------------------------------
(PID.TID 0000.0001)  tracer number :   60
(PID.TID 0000.0001) PTRACERS_names = /* Tracer short name */
(PID.TID 0000.0001)               'c43'
(PID.TID 0000.0001)     ;
(PID.TID 0000.0001) PTRACERS_long_names = /* Tracer long name */
(PID.TID 0000.0001)               ''
(PID.TID 0000.0001)     ;
(PID.TID 0000.0001) PTRACERS_ioLabel = /* tracer IO Label */
(PID.TID 0000.0001)               '60'
(PID.TID 0000.0001)     ;
(PID.TID 0000.0001) PTRACERS_advScheme = /* Advection Scheme */
(PID.TID 0000.0001)                      33
(PID.TID 0000.0001)     ;
(PID.TID 0000.0001) PTRACERS_SOM_Advection = /* tracer uses SOM advection scheme */
(PID.TID 0000.0001)                   F
(PID.TID 0000.0001)     ;
(PID.TID 0000.0001) PTRACERS_ImplVertAdv = /* implicit vert. advection flag */
(PID.TID 0000.0001)                   F
(PID.TID 0000.0001)     ;
(PID.TID 0000.0001) PTRACERS_diffKh = /* Laplacian Diffusivity */
(PID.TID 0000.0001)                 0.000000000000000E+00
(PID.TID 0000.0001)     ;
(PID.TID 0000.0001) PTRACERS_diffK4 = /* Biharmonic Diffusivity */
(PID.TID 0000.0001)                 0.000000000000000E+00
(PID.TID 0000.0001)     ;
(PID.TID 0000.0001) PTRACERS_diffKrNr = /* Vertical Diffusivity */
(PID.TID 0000.0001)    35 @  1.000000000000000E-05              /* K =  1: 35 */
(PID.TID 0000.0001)     ;
(PID.TID 0000.0001) PTRACERS_useGMRedi = /* apply GM-Redi */
(PID.TID 0000.0001)                   F
(PID.TID 0000.0001)     ;
(PID.TID 0000.0001) PTRACERS_useDWNSLP = /* apply DOWN-SLOPE Flow */
(PID.TID 0000.0001)                   F
(PID.TID 0000.0001)     ;
(PID.TID 0000.0001) PTRACERS_useKPP = /* apply KPP scheme */
(PID.TID 0000.0001)                   F
(PID.TID 0000.0001)     ;
(PID.TID 0000.0001) PTRACERS_ref = /* Reference vertical profile */
(PID.TID 0000.0001)    35 @  0.000000000000000E+00              /* K =  1: 35 */
(PID.TID 0000.0001)     ;
(PID.TID 0000.0001) PTRACERS_EvPrRn =/* tracer conc. in Evap. & Rain */
(PID.TID 0000.0001)                 1.234567000000000E+05
(PID.TID 0000.0001)     ;
(PID.TID 0000.0001)  -----------------------------------
(PID.TID 0000.0001)  tracer number :   61
(PID.TID 0000.0001) PTRACERS_names = /* Tracer short name */
(PID.TID 0000.0001)               'c44'
(PID.TID 0000.0001)     ;
(PID.TID 0000.0001) PTRACERS_long_names = /* Tracer long name */
(PID.TID 0000.0001)               ''
(PID.TID 0000.0001)     ;
(PID.TID 0000.0001) PTRACERS_ioLabel = /* tracer IO Label */
(PID.TID 0000.0001)               '61'
(PID.TID 0000.0001)     ;
(PID.TID 0000.0001) PTRACERS_advScheme = /* Advection Scheme */
(PID.TID 0000.0001)                      33
(PID.TID 0000.0001)     ;
(PID.TID 0000.0001) PTRACERS_SOM_Advection = /* tracer uses SOM advection scheme */
(PID.TID 0000.0001)                   F
(PID.TID 0000.0001)     ;
(PID.TID 0000.0001) PTRACERS_ImplVertAdv = /* implicit vert. advection flag */
(PID.TID 0000.0001)                   F
(PID.TID 0000.0001)     ;
(PID.TID 0000.0001) PTRACERS_diffKh = /* Laplacian Diffusivity */
(PID.TID 0000.0001)                 0.000000000000000E+00
(PID.TID 0000.0001)     ;
(PID.TID 0000.0001) PTRACERS_diffK4 = /* Biharmonic Diffusivity */
(PID.TID 0000.0001)                 0.000000000000000E+00
(PID.TID 0000.0001)     ;
(PID.TID 0000.0001) PTRACERS_diffKrNr = /* Vertical Diffusivity */
(PID.TID 0000.0001)    35 @  1.000000000000000E-05              /* K =  1: 35 */
(PID.TID 0000.0001)     ;
(PID.TID 0000.0001) PTRACERS_useGMRedi = /* apply GM-Redi */
(PID.TID 0000.0001)                   F
(PID.TID 0000.0001)     ;
(PID.TID 0000.0001) PTRACERS_useDWNSLP = /* apply DOWN-SLOPE Flow */
(PID.TID 0000.0001)                   F
(PID.TID 0000.0001)     ;
(PID.TID 0000.0001) PTRACERS_useKPP = /* apply KPP scheme */
(PID.TID 0000.0001)                   F
(PID.TID 0000.0001)     ;
(PID.TID 0000.0001) PTRACERS_ref = /* Reference vertical profile */
(PID.TID 0000.0001)    35 @  0.000000000000000E+00              /* K =  1: 35 */
(PID.TID 0000.0001)     ;
(PID.TID 0000.0001) PTRACERS_EvPrRn =/* tracer conc. in Evap. & Rain */
(PID.TID 0000.0001)                 1.234567000000000E+05
(PID.TID 0000.0001)     ;
(PID.TID 0000.0001)  -----------------------------------
(PID.TID 0000.0001)  tracer number :   62
(PID.TID 0000.0001) PTRACERS_names = /* Tracer short name */
(PID.TID 0000.0001)               'c45'
(PID.TID 0000.0001)     ;
(PID.TID 0000.0001) PTRACERS_long_names = /* Tracer long name */
(PID.TID 0000.0001)               ''
(PID.TID 0000.0001)     ;
(PID.TID 0000.0001) PTRACERS_ioLabel = /* tracer IO Label */
(PID.TID 0000.0001)               '62'
(PID.TID 0000.0001)     ;
(PID.TID 0000.0001) PTRACERS_advScheme = /* Advection Scheme */
(PID.TID 0000.0001)                      33
(PID.TID 0000.0001)     ;
(PID.TID 0000.0001) PTRACERS_SOM_Advection = /* tracer uses SOM advection scheme */
(PID.TID 0000.0001)                   F
(PID.TID 0000.0001)     ;
(PID.TID 0000.0001) PTRACERS_ImplVertAdv = /* implicit vert. advection flag */
(PID.TID 0000.0001)                   F
(PID.TID 0000.0001)     ;
(PID.TID 0000.0001) PTRACERS_diffKh = /* Laplacian Diffusivity */
(PID.TID 0000.0001)                 0.000000000000000E+00
(PID.TID 0000.0001)     ;
(PID.TID 0000.0001) PTRACERS_diffK4 = /* Biharmonic Diffusivity */
(PID.TID 0000.0001)                 0.000000000000000E+00
(PID.TID 0000.0001)     ;
(PID.TID 0000.0001) PTRACERS_diffKrNr = /* Vertical Diffusivity */
(PID.TID 0000.0001)    35 @  1.000000000000000E-05              /* K =  1: 35 */
(PID.TID 0000.0001)     ;
(PID.TID 0000.0001) PTRACERS_useGMRedi = /* apply GM-Redi */
(PID.TID 0000.0001)                   F
(PID.TID 0000.0001)     ;
(PID.TID 0000.0001) PTRACERS_useDWNSLP = /* apply DOWN-SLOPE Flow */
(PID.TID 0000.0001)                   F
(PID.TID 0000.0001)     ;
(PID.TID 0000.0001) PTRACERS_useKPP = /* apply KPP scheme */
(PID.TID 0000.0001)                   F
(PID.TID 0000.0001)     ;
(PID.TID 0000.0001) PTRACERS_ref = /* Reference vertical profile */
(PID.TID 0000.0001)    35 @  0.000000000000000E+00              /* K =  1: 35 */
(PID.TID 0000.0001)     ;
(PID.TID 0000.0001) PTRACERS_EvPrRn =/* tracer conc. in Evap. & Rain */
(PID.TID 0000.0001)                 1.234567000000000E+05
(PID.TID 0000.0001)     ;
(PID.TID 0000.0001)  -----------------------------------
(PID.TID 0000.0001)  tracer number :   63
(PID.TID 0000.0001) PTRACERS_names = /* Tracer short name */
(PID.TID 0000.0001)               'c46'
(PID.TID 0000.0001)     ;
(PID.TID 0000.0001) PTRACERS_long_names = /* Tracer long name */
(PID.TID 0000.0001)               ''
(PID.TID 0000.0001)     ;
(PID.TID 0000.0001) PTRACERS_ioLabel = /* tracer IO Label */
(PID.TID 0000.0001)               '63'
(PID.TID 0000.0001)     ;
(PID.TID 0000.0001) PTRACERS_advScheme = /* Advection Scheme */
(PID.TID 0000.0001)                      33
(PID.TID 0000.0001)     ;
(PID.TID 0000.0001) PTRACERS_SOM_Advection = /* tracer uses SOM advection scheme */
(PID.TID 0000.0001)                   F
(PID.TID 0000.0001)     ;
(PID.TID 0000.0001) PTRACERS_ImplVertAdv = /* implicit vert. advection flag */
(PID.TID 0000.0001)                   F
(PID.TID 0000.0001)     ;
(PID.TID 0000.0001) PTRACERS_diffKh = /* Laplacian Diffusivity */
(PID.TID 0000.0001)                 0.000000000000000E+00
(PID.TID 0000.0001)     ;
(PID.TID 0000.0001) PTRACERS_diffK4 = /* Biharmonic Diffusivity */
(PID.TID 0000.0001)                 0.000000000000000E+00
(PID.TID 0000.0001)     ;
(PID.TID 0000.0001) PTRACERS_diffKrNr = /* Vertical Diffusivity */
(PID.TID 0000.0001)    35 @  1.000000000000000E-05              /* K =  1: 35 */
(PID.TID 0000.0001)     ;
(PID.TID 0000.0001) PTRACERS_useGMRedi = /* apply GM-Redi */
(PID.TID 0000.0001)                   F
(PID.TID 0000.0001)     ;
(PID.TID 0000.0001) PTRACERS_useDWNSLP = /* apply DOWN-SLOPE Flow */
(PID.TID 0000.0001)                   F
(PID.TID 0000.0001)     ;
(PID.TID 0000.0001) PTRACERS_useKPP = /* apply KPP scheme */
(PID.TID 0000.0001)                   F
(PID.TID 0000.0001)     ;
(PID.TID 0000.0001) PTRACERS_ref = /* Reference vertical profile */
(PID.TID 0000.0001)    35 @  0.000000000000000E+00              /* K =  1: 35 */
(PID.TID 0000.0001)     ;
(PID.TID 0000.0001) PTRACERS_EvPrRn =/* tracer conc. in Evap. & Rain */
(PID.TID 0000.0001)                 1.234567000000000E+05
(PID.TID 0000.0001)     ;
(PID.TID 0000.0001)  -----------------------------------
(PID.TID 0000.0001)  tracer number :   64
(PID.TID 0000.0001) PTRACERS_names = /* Tracer short name */
(PID.TID 0000.0001)               'c47'
(PID.TID 0000.0001)     ;
(PID.TID 0000.0001) PTRACERS_long_names = /* Tracer long name */
(PID.TID 0000.0001)               ''
(PID.TID 0000.0001)     ;
(PID.TID 0000.0001) PTRACERS_ioLabel = /* tracer IO Label */
(PID.TID 0000.0001)               '64'
(PID.TID 0000.0001)     ;
(PID.TID 0000.0001) PTRACERS_advScheme = /* Advection Scheme */
(PID.TID 0000.0001)                      33
(PID.TID 0000.0001)     ;
(PID.TID 0000.0001) PTRACERS_SOM_Advection = /* tracer uses SOM advection scheme */
(PID.TID 0000.0001)                   F
(PID.TID 0000.0001)     ;
(PID.TID 0000.0001) PTRACERS_ImplVertAdv = /* implicit vert. advection flag */
(PID.TID 0000.0001)                   F
(PID.TID 0000.0001)     ;
(PID.TID 0000.0001) PTRACERS_diffKh = /* Laplacian Diffusivity */
(PID.TID 0000.0001)                 0.000000000000000E+00
(PID.TID 0000.0001)     ;
(PID.TID 0000.0001) PTRACERS_diffK4 = /* Biharmonic Diffusivity */
(PID.TID 0000.0001)                 0.000000000000000E+00
(PID.TID 0000.0001)     ;
(PID.TID 0000.0001) PTRACERS_diffKrNr = /* Vertical Diffusivity */
(PID.TID 0000.0001)    35 @  1.000000000000000E-05              /* K =  1: 35 */
(PID.TID 0000.0001)     ;
(PID.TID 0000.0001) PTRACERS_useGMRedi = /* apply GM-Redi */
(PID.TID 0000.0001)                   F
(PID.TID 0000.0001)     ;
(PID.TID 0000.0001) PTRACERS_useDWNSLP = /* apply DOWN-SLOPE Flow */
(PID.TID 0000.0001)                   F
(PID.TID 0000.0001)     ;
(PID.TID 0000.0001) PTRACERS_useKPP = /* apply KPP scheme */
(PID.TID 0000.0001)                   F
(PID.TID 0000.0001)     ;
(PID.TID 0000.0001) PTRACERS_ref = /* Reference vertical profile */
(PID.TID 0000.0001)    35 @  0.000000000000000E+00              /* K =  1: 35 */
(PID.TID 0000.0001)     ;
(PID.TID 0000.0001) PTRACERS_EvPrRn =/* tracer conc. in Evap. & Rain */
(PID.TID 0000.0001)                 1.234567000000000E+05
(PID.TID 0000.0001)     ;
(PID.TID 0000.0001)  -----------------------------------
(PID.TID 0000.0001)  tracer number :   65
(PID.TID 0000.0001) PTRACERS_names = /* Tracer short name */
(PID.TID 0000.0001)               'c48'
(PID.TID 0000.0001)     ;
(PID.TID 0000.0001) PTRACERS_long_names = /* Tracer long name */
(PID.TID 0000.0001)               ''
(PID.TID 0000.0001)     ;
(PID.TID 0000.0001) PTRACERS_ioLabel = /* tracer IO Label */
(PID.TID 0000.0001)               '65'
(PID.TID 0000.0001)     ;
(PID.TID 0000.0001) PTRACERS_advScheme = /* Advection Scheme */
(PID.TID 0000.0001)                      33
(PID.TID 0000.0001)     ;
(PID.TID 0000.0001) PTRACERS_SOM_Advection = /* tracer uses SOM advection scheme */
(PID.TID 0000.0001)                   F
(PID.TID 0000.0001)     ;
(PID.TID 0000.0001) PTRACERS_ImplVertAdv = /* implicit vert. advection flag */
(PID.TID 0000.0001)                   F
(PID.TID 0000.0001)     ;
(PID.TID 0000.0001) PTRACERS_diffKh = /* Laplacian Diffusivity */
(PID.TID 0000.0001)                 0.000000000000000E+00
(PID.TID 0000.0001)     ;
(PID.TID 0000.0001) PTRACERS_diffK4 = /* Biharmonic Diffusivity */
(PID.TID 0000.0001)                 0.000000000000000E+00
(PID.TID 0000.0001)     ;
(PID.TID 0000.0001) PTRACERS_diffKrNr = /* Vertical Diffusivity */
(PID.TID 0000.0001)    35 @  1.000000000000000E-05              /* K =  1: 35 */
(PID.TID 0000.0001)     ;
(PID.TID 0000.0001) PTRACERS_useGMRedi = /* apply GM-Redi */
(PID.TID 0000.0001)                   F
(PID.TID 0000.0001)     ;
(PID.TID 0000.0001) PTRACERS_useDWNSLP = /* apply DOWN-SLOPE Flow */
(PID.TID 0000.0001)                   F
(PID.TID 0000.0001)     ;
(PID.TID 0000.0001) PTRACERS_useKPP = /* apply KPP scheme */
(PID.TID 0000.0001)                   F
(PID.TID 0000.0001)     ;
(PID.TID 0000.0001) PTRACERS_ref = /* Reference vertical profile */
(PID.TID 0000.0001)    35 @  0.000000000000000E+00              /* K =  1: 35 */
(PID.TID 0000.0001)     ;
(PID.TID 0000.0001) PTRACERS_EvPrRn =/* tracer conc. in Evap. & Rain */
(PID.TID 0000.0001)                 1.234567000000000E+05
(PID.TID 0000.0001)     ;
(PID.TID 0000.0001)  -----------------------------------
(PID.TID 0000.0001)  tracer number :   66
(PID.TID 0000.0001) PTRACERS_names = /* Tracer short name */
(PID.TID 0000.0001)               'c49'
(PID.TID 0000.0001)     ;
(PID.TID 0000.0001) PTRACERS_long_names = /* Tracer long name */
(PID.TID 0000.0001)               ''
(PID.TID 0000.0001)     ;
(PID.TID 0000.0001) PTRACERS_ioLabel = /* tracer IO Label */
(PID.TID 0000.0001)               '66'
(PID.TID 0000.0001)     ;
(PID.TID 0000.0001) PTRACERS_advScheme = /* Advection Scheme */
(PID.TID 0000.0001)                      33
(PID.TID 0000.0001)     ;
(PID.TID 0000.0001) PTRACERS_SOM_Advection = /* tracer uses SOM advection scheme */
(PID.TID 0000.0001)                   F
(PID.TID 0000.0001)     ;
(PID.TID 0000.0001) PTRACERS_ImplVertAdv = /* implicit vert. advection flag */
(PID.TID 0000.0001)                   F
(PID.TID 0000.0001)     ;
(PID.TID 0000.0001) PTRACERS_diffKh = /* Laplacian Diffusivity */
(PID.TID 0000.0001)                 0.000000000000000E+00
(PID.TID 0000.0001)     ;
(PID.TID 0000.0001) PTRACERS_diffK4 = /* Biharmonic Diffusivity */
(PID.TID 0000.0001)                 0.000000000000000E+00
(PID.TID 0000.0001)     ;
(PID.TID 0000.0001) PTRACERS_diffKrNr = /* Vertical Diffusivity */
(PID.TID 0000.0001)    35 @  1.000000000000000E-05              /* K =  1: 35 */
(PID.TID 0000.0001)     ;
(PID.TID 0000.0001) PTRACERS_useGMRedi = /* apply GM-Redi */
(PID.TID 0000.0001)                   F
(PID.TID 0000.0001)     ;
(PID.TID 0000.0001) PTRACERS_useDWNSLP = /* apply DOWN-SLOPE Flow */
(PID.TID 0000.0001)                   F
(PID.TID 0000.0001)     ;
(PID.TID 0000.0001) PTRACERS_useKPP = /* apply KPP scheme */
(PID.TID 0000.0001)                   F
(PID.TID 0000.0001)     ;
(PID.TID 0000.0001) PTRACERS_ref = /* Reference vertical profile */
(PID.TID 0000.0001)    35 @  0.000000000000000E+00              /* K =  1: 35 */
(PID.TID 0000.0001)     ;
(PID.TID 0000.0001) PTRACERS_EvPrRn =/* tracer conc. in Evap. & Rain */
(PID.TID 0000.0001)                 1.234567000000000E+05
(PID.TID 0000.0001)     ;
(PID.TID 0000.0001)  -----------------------------------
(PID.TID 0000.0001)  tracer number :   67
(PID.TID 0000.0001) PTRACERS_names = /* Tracer short name */
(PID.TID 0000.0001)               'c50'
(PID.TID 0000.0001)     ;
(PID.TID 0000.0001) PTRACERS_long_names = /* Tracer long name */
(PID.TID 0000.0001)               ''
(PID.TID 0000.0001)     ;
(PID.TID 0000.0001) PTRACERS_ioLabel = /* tracer IO Label */
(PID.TID 0000.0001)               '67'
(PID.TID 0000.0001)     ;
(PID.TID 0000.0001) PTRACERS_advScheme = /* Advection Scheme */
(PID.TID 0000.0001)                      33
(PID.TID 0000.0001)     ;
(PID.TID 0000.0001) PTRACERS_SOM_Advection = /* tracer uses SOM advection scheme */
(PID.TID 0000.0001)                   F
(PID.TID 0000.0001)     ;
(PID.TID 0000.0001) PTRACERS_ImplVertAdv = /* implicit vert. advection flag */
(PID.TID 0000.0001)                   F
(PID.TID 0000.0001)     ;
(PID.TID 0000.0001) PTRACERS_diffKh = /* Laplacian Diffusivity */
(PID.TID 0000.0001)                 0.000000000000000E+00
(PID.TID 0000.0001)     ;
(PID.TID 0000.0001) PTRACERS_diffK4 = /* Biharmonic Diffusivity */
(PID.TID 0000.0001)                 0.000000000000000E+00
(PID.TID 0000.0001)     ;
(PID.TID 0000.0001) PTRACERS_diffKrNr = /* Vertical Diffusivity */
(PID.TID 0000.0001)    35 @  1.000000000000000E-05              /* K =  1: 35 */
(PID.TID 0000.0001)     ;
(PID.TID 0000.0001) PTRACERS_useGMRedi = /* apply GM-Redi */
(PID.TID 0000.0001)                   F
(PID.TID 0000.0001)     ;
(PID.TID 0000.0001) PTRACERS_useDWNSLP = /* apply DOWN-SLOPE Flow */
(PID.TID 0000.0001)                   F
(PID.TID 0000.0001)     ;
(PID.TID 0000.0001) PTRACERS_useKPP = /* apply KPP scheme */
(PID.TID 0000.0001)                   F
(PID.TID 0000.0001)     ;
(PID.TID 0000.0001) PTRACERS_ref = /* Reference vertical profile */
(PID.TID 0000.0001)    35 @  0.000000000000000E+00              /* K =  1: 35 */
(PID.TID 0000.0001)     ;
(PID.TID 0000.0001) PTRACERS_EvPrRn =/* tracer conc. in Evap. & Rain */
(PID.TID 0000.0001)                 1.234567000000000E+05
(PID.TID 0000.0001)     ;
(PID.TID 0000.0001)  -----------------------------------
(PID.TID 0000.0001)  tracer number :   68
(PID.TID 0000.0001) PTRACERS_names = /* Tracer short name */
(PID.TID 0000.0001)               'c51'
(PID.TID 0000.0001)     ;
(PID.TID 0000.0001) PTRACERS_long_names = /* Tracer long name */
(PID.TID 0000.0001)               ''
(PID.TID 0000.0001)     ;
(PID.TID 0000.0001) PTRACERS_ioLabel = /* tracer IO Label */
(PID.TID 0000.0001)               '68'
(PID.TID 0000.0001)     ;
(PID.TID 0000.0001) PTRACERS_advScheme = /* Advection Scheme */
(PID.TID 0000.0001)                      33
(PID.TID 0000.0001)     ;
(PID.TID 0000.0001) PTRACERS_SOM_Advection = /* tracer uses SOM advection scheme */
(PID.TID 0000.0001)                   F
(PID.TID 0000.0001)     ;
(PID.TID 0000.0001) PTRACERS_ImplVertAdv = /* implicit vert. advection flag */
(PID.TID 0000.0001)                   F
(PID.TID 0000.0001)     ;
(PID.TID 0000.0001) PTRACERS_diffKh = /* Laplacian Diffusivity */
(PID.TID 0000.0001)                 0.000000000000000E+00
(PID.TID 0000.0001)     ;
(PID.TID 0000.0001) PTRACERS_diffK4 = /* Biharmonic Diffusivity */
(PID.TID 0000.0001)                 0.000000000000000E+00
(PID.TID 0000.0001)     ;
(PID.TID 0000.0001) PTRACERS_diffKrNr = /* Vertical Diffusivity */
(PID.TID 0000.0001)    35 @  1.000000000000000E-05              /* K =  1: 35 */
(PID.TID 0000.0001)     ;
(PID.TID 0000.0001) PTRACERS_useGMRedi = /* apply GM-Redi */
(PID.TID 0000.0001)                   F
(PID.TID 0000.0001)     ;
(PID.TID 0000.0001) PTRACERS_useDWNSLP = /* apply DOWN-SLOPE Flow */
(PID.TID 0000.0001)                   F
(PID.TID 0000.0001)     ;
(PID.TID 0000.0001) PTRACERS_useKPP = /* apply KPP scheme */
(PID.TID 0000.0001)                   F
(PID.TID 0000.0001)     ;
(PID.TID 0000.0001) PTRACERS_ref = /* Reference vertical profile */
(PID.TID 0000.0001)    35 @  0.000000000000000E+00              /* K =  1: 35 */
(PID.TID 0000.0001)     ;
(PID.TID 0000.0001) PTRACERS_EvPrRn =/* tracer conc. in Evap. & Rain */
(PID.TID 0000.0001)                 1.234567000000000E+05
(PID.TID 0000.0001)     ;
(PID.TID 0000.0001)  -----------------------------------
(PID.TID 0000.0001)  tracer number :   69
(PID.TID 0000.0001) PTRACERS_names = /* Tracer short name */
(PID.TID 0000.0001)               'c52'
(PID.TID 0000.0001)     ;
(PID.TID 0000.0001) PTRACERS_long_names = /* Tracer long name */
(PID.TID 0000.0001)               ''
(PID.TID 0000.0001)     ;
(PID.TID 0000.0001) PTRACERS_ioLabel = /* tracer IO Label */
(PID.TID 0000.0001)               '69'
(PID.TID 0000.0001)     ;
(PID.TID 0000.0001) PTRACERS_advScheme = /* Advection Scheme */
(PID.TID 0000.0001)                      33
(PID.TID 0000.0001)     ;
(PID.TID 0000.0001) PTRACERS_SOM_Advection = /* tracer uses SOM advection scheme */
(PID.TID 0000.0001)                   F
(PID.TID 0000.0001)     ;
(PID.TID 0000.0001) PTRACERS_ImplVertAdv = /* implicit vert. advection flag */
(PID.TID 0000.0001)                   F
(PID.TID 0000.0001)     ;
(PID.TID 0000.0001) PTRACERS_diffKh = /* Laplacian Diffusivity */
(PID.TID 0000.0001)                 0.000000000000000E+00
(PID.TID 0000.0001)     ;
(PID.TID 0000.0001) PTRACERS_diffK4 = /* Biharmonic Diffusivity */
(PID.TID 0000.0001)                 0.000000000000000E+00
(PID.TID 0000.0001)     ;
(PID.TID 0000.0001) PTRACERS_diffKrNr = /* Vertical Diffusivity */
(PID.TID 0000.0001)    35 @  1.000000000000000E-05              /* K =  1: 35 */
(PID.TID 0000.0001)     ;
(PID.TID 0000.0001) PTRACERS_useGMRedi = /* apply GM-Redi */
(PID.TID 0000.0001)                   F
(PID.TID 0000.0001)     ;
(PID.TID 0000.0001) PTRACERS_useDWNSLP = /* apply DOWN-SLOPE Flow */
(PID.TID 0000.0001)                   F
(PID.TID 0000.0001)     ;
(PID.TID 0000.0001) PTRACERS_useKPP = /* apply KPP scheme */
(PID.TID 0000.0001)                   F
(PID.TID 0000.0001)     ;
(PID.TID 0000.0001) PTRACERS_ref = /* Reference vertical profile */
(PID.TID 0000.0001)    35 @  0.000000000000000E+00              /* K =  1: 35 */
(PID.TID 0000.0001)     ;
(PID.TID 0000.0001) PTRACERS_EvPrRn =/* tracer conc. in Evap. & Rain */
(PID.TID 0000.0001)                 1.234567000000000E+05
(PID.TID 0000.0001)     ;
(PID.TID 0000.0001)  -----------------------------------
(PID.TID 0000.0001)  tracer number :   70
(PID.TID 0000.0001) PTRACERS_names = /* Tracer short name */
(PID.TID 0000.0001)               'c53'
(PID.TID 0000.0001)     ;
(PID.TID 0000.0001) PTRACERS_long_names = /* Tracer long name */
(PID.TID 0000.0001)               ''
(PID.TID 0000.0001)     ;
(PID.TID 0000.0001) PTRACERS_ioLabel = /* tracer IO Label */
(PID.TID 0000.0001)               '70'
(PID.TID 0000.0001)     ;
(PID.TID 0000.0001) PTRACERS_advScheme = /* Advection Scheme */
(PID.TID 0000.0001)                      33
(PID.TID 0000.0001)     ;
(PID.TID 0000.0001) PTRACERS_SOM_Advection = /* tracer uses SOM advection scheme */
(PID.TID 0000.0001)                   F
(PID.TID 0000.0001)     ;
(PID.TID 0000.0001) PTRACERS_ImplVertAdv = /* implicit vert. advection flag */
(PID.TID 0000.0001)                   F
(PID.TID 0000.0001)     ;
(PID.TID 0000.0001) PTRACERS_diffKh = /* Laplacian Diffusivity */
(PID.TID 0000.0001)                 0.000000000000000E+00
(PID.TID 0000.0001)     ;
(PID.TID 0000.0001) PTRACERS_diffK4 = /* Biharmonic Diffusivity */
(PID.TID 0000.0001)                 0.000000000000000E+00
(PID.TID 0000.0001)     ;
(PID.TID 0000.0001) PTRACERS_diffKrNr = /* Vertical Diffusivity */
(PID.TID 0000.0001)    35 @  1.000000000000000E-05              /* K =  1: 35 */
(PID.TID 0000.0001)     ;
(PID.TID 0000.0001) PTRACERS_useGMRedi = /* apply GM-Redi */
(PID.TID 0000.0001)                   F
(PID.TID 0000.0001)     ;
(PID.TID 0000.0001) PTRACERS_useDWNSLP = /* apply DOWN-SLOPE Flow */
(PID.TID 0000.0001)                   F
(PID.TID 0000.0001)     ;
(PID.TID 0000.0001) PTRACERS_useKPP = /* apply KPP scheme */
(PID.TID 0000.0001)                   F
(PID.TID 0000.0001)     ;
(PID.TID 0000.0001) PTRACERS_ref = /* Reference vertical profile */
(PID.TID 0000.0001)    35 @  0.000000000000000E+00              /* K =  1: 35 */
(PID.TID 0000.0001)     ;
(PID.TID 0000.0001) PTRACERS_EvPrRn =/* tracer conc. in Evap. & Rain */
(PID.TID 0000.0001)                 1.234567000000000E+05
(PID.TID 0000.0001)     ;
(PID.TID 0000.0001)  -----------------------------------
(PID.TID 0000.0001)  tracer number :   71
(PID.TID 0000.0001) PTRACERS_names = /* Tracer short name */
(PID.TID 0000.0001)               'c54'
(PID.TID 0000.0001)     ;
(PID.TID 0000.0001) PTRACERS_long_names = /* Tracer long name */
(PID.TID 0000.0001)               ''
(PID.TID 0000.0001)     ;
(PID.TID 0000.0001) PTRACERS_ioLabel = /* tracer IO Label */
(PID.TID 0000.0001)               '71'
(PID.TID 0000.0001)     ;
(PID.TID 0000.0001) PTRACERS_advScheme = /* Advection Scheme */
(PID.TID 0000.0001)                      33
(PID.TID 0000.0001)     ;
(PID.TID 0000.0001) PTRACERS_SOM_Advection = /* tracer uses SOM advection scheme */
(PID.TID 0000.0001)                   F
(PID.TID 0000.0001)     ;
(PID.TID 0000.0001) PTRACERS_ImplVertAdv = /* implicit vert. advection flag */
(PID.TID 0000.0001)                   F
(PID.TID 0000.0001)     ;
(PID.TID 0000.0001) PTRACERS_diffKh = /* Laplacian Diffusivity */
(PID.TID 0000.0001)                 0.000000000000000E+00
(PID.TID 0000.0001)     ;
(PID.TID 0000.0001) PTRACERS_diffK4 = /* Biharmonic Diffusivity */
(PID.TID 0000.0001)                 0.000000000000000E+00
(PID.TID 0000.0001)     ;
(PID.TID 0000.0001) PTRACERS_diffKrNr = /* Vertical Diffusivity */
(PID.TID 0000.0001)    35 @  1.000000000000000E-05              /* K =  1: 35 */
(PID.TID 0000.0001)     ;
(PID.TID 0000.0001) PTRACERS_useGMRedi = /* apply GM-Redi */
(PID.TID 0000.0001)                   F
(PID.TID 0000.0001)     ;
(PID.TID 0000.0001) PTRACERS_useDWNSLP = /* apply DOWN-SLOPE Flow */
(PID.TID 0000.0001)                   F
(PID.TID 0000.0001)     ;
(PID.TID 0000.0001) PTRACERS_useKPP = /* apply KPP scheme */
(PID.TID 0000.0001)                   F
(PID.TID 0000.0001)     ;
(PID.TID 0000.0001) PTRACERS_ref = /* Reference vertical profile */
(PID.TID 0000.0001)    35 @  0.000000000000000E+00              /* K =  1: 35 */
(PID.TID 0000.0001)     ;
(PID.TID 0000.0001) PTRACERS_EvPrRn =/* tracer conc. in Evap. & Rain */
(PID.TID 0000.0001)                 1.234567000000000E+05
(PID.TID 0000.0001)     ;
(PID.TID 0000.0001)  -----------------------------------
(PID.TID 0000.0001)  tracer number :   72
(PID.TID 0000.0001) PTRACERS_names = /* Tracer short name */
(PID.TID 0000.0001)               'c55'
(PID.TID 0000.0001)     ;
(PID.TID 0000.0001) PTRACERS_long_names = /* Tracer long name */
(PID.TID 0000.0001)               ''
(PID.TID 0000.0001)     ;
(PID.TID 0000.0001) PTRACERS_ioLabel = /* tracer IO Label */
(PID.TID 0000.0001)               '72'
(PID.TID 0000.0001)     ;
(PID.TID 0000.0001) PTRACERS_advScheme = /* Advection Scheme */
(PID.TID 0000.0001)                      33
(PID.TID 0000.0001)     ;
(PID.TID 0000.0001) PTRACERS_SOM_Advection = /* tracer uses SOM advection scheme */
(PID.TID 0000.0001)                   F
(PID.TID 0000.0001)     ;
(PID.TID 0000.0001) PTRACERS_ImplVertAdv = /* implicit vert. advection flag */
(PID.TID 0000.0001)                   F
(PID.TID 0000.0001)     ;
(PID.TID 0000.0001) PTRACERS_diffKh = /* Laplacian Diffusivity */
(PID.TID 0000.0001)                 0.000000000000000E+00
(PID.TID 0000.0001)     ;
(PID.TID 0000.0001) PTRACERS_diffK4 = /* Biharmonic Diffusivity */
(PID.TID 0000.0001)                 0.000000000000000E+00
(PID.TID 0000.0001)     ;
(PID.TID 0000.0001) PTRACERS_diffKrNr = /* Vertical Diffusivity */
(PID.TID 0000.0001)    35 @  1.000000000000000E-05              /* K =  1: 35 */
(PID.TID 0000.0001)     ;
(PID.TID 0000.0001) PTRACERS_useGMRedi = /* apply GM-Redi */
(PID.TID 0000.0001)                   F
(PID.TID 0000.0001)     ;
(PID.TID 0000.0001) PTRACERS_useDWNSLP = /* apply DOWN-SLOPE Flow */
(PID.TID 0000.0001)                   F
(PID.TID 0000.0001)     ;
(PID.TID 0000.0001) PTRACERS_useKPP = /* apply KPP scheme */
(PID.TID 0000.0001)                   F
(PID.TID 0000.0001)     ;
(PID.TID 0000.0001) PTRACERS_ref = /* Reference vertical profile */
(PID.TID 0000.0001)    35 @  0.000000000000000E+00              /* K =  1: 35 */
(PID.TID 0000.0001)     ;
(PID.TID 0000.0001) PTRACERS_EvPrRn =/* tracer conc. in Evap. & Rain */
(PID.TID 0000.0001)                 1.234567000000000E+05
(PID.TID 0000.0001)     ;
(PID.TID 0000.0001)  -----------------------------------
(PID.TID 0000.0001)  tracer number :   73
(PID.TID 0000.0001) PTRACERS_names = /* Tracer short name */
(PID.TID 0000.0001)               'c56'
(PID.TID 0000.0001)     ;
(PID.TID 0000.0001) PTRACERS_long_names = /* Tracer long name */
(PID.TID 0000.0001)               ''
(PID.TID 0000.0001)     ;
(PID.TID 0000.0001) PTRACERS_ioLabel = /* tracer IO Label */
(PID.TID 0000.0001)               '73'
(PID.TID 0000.0001)     ;
(PID.TID 0000.0001) PTRACERS_advScheme = /* Advection Scheme */
(PID.TID 0000.0001)                      33
(PID.TID 0000.0001)     ;
(PID.TID 0000.0001) PTRACERS_SOM_Advection = /* tracer uses SOM advection scheme */
(PID.TID 0000.0001)                   F
(PID.TID 0000.0001)     ;
(PID.TID 0000.0001) PTRACERS_ImplVertAdv = /* implicit vert. advection flag */
(PID.TID 0000.0001)                   F
(PID.TID 0000.0001)     ;
(PID.TID 0000.0001) PTRACERS_diffKh = /* Laplacian Diffusivity */
(PID.TID 0000.0001)                 0.000000000000000E+00
(PID.TID 0000.0001)     ;
(PID.TID 0000.0001) PTRACERS_diffK4 = /* Biharmonic Diffusivity */
(PID.TID 0000.0001)                 0.000000000000000E+00
(PID.TID 0000.0001)     ;
(PID.TID 0000.0001) PTRACERS_diffKrNr = /* Vertical Diffusivity */
(PID.TID 0000.0001)    35 @  1.000000000000000E-05              /* K =  1: 35 */
(PID.TID 0000.0001)     ;
(PID.TID 0000.0001) PTRACERS_useGMRedi = /* apply GM-Redi */
(PID.TID 0000.0001)                   F
(PID.TID 0000.0001)     ;
(PID.TID 0000.0001) PTRACERS_useDWNSLP = /* apply DOWN-SLOPE Flow */
(PID.TID 0000.0001)                   F
(PID.TID 0000.0001)     ;
(PID.TID 0000.0001) PTRACERS_useKPP = /* apply KPP scheme */
(PID.TID 0000.0001)                   F
(PID.TID 0000.0001)     ;
(PID.TID 0000.0001) PTRACERS_ref = /* Reference vertical profile */
(PID.TID 0000.0001)    35 @  0.000000000000000E+00              /* K =  1: 35 */
(PID.TID 0000.0001)     ;
(PID.TID 0000.0001) PTRACERS_EvPrRn =/* tracer conc. in Evap. & Rain */
(PID.TID 0000.0001)                 1.234567000000000E+05
(PID.TID 0000.0001)     ;
(PID.TID 0000.0001)  -----------------------------------
(PID.TID 0000.0001)  tracer number :   74
(PID.TID 0000.0001) PTRACERS_names = /* Tracer short name */
(PID.TID 0000.0001)               'c57'
(PID.TID 0000.0001)     ;
(PID.TID 0000.0001) PTRACERS_long_names = /* Tracer long name */
(PID.TID 0000.0001)               ''
(PID.TID 0000.0001)     ;
(PID.TID 0000.0001) PTRACERS_ioLabel = /* tracer IO Label */
(PID.TID 0000.0001)               '74'
(PID.TID 0000.0001)     ;
(PID.TID 0000.0001) PTRACERS_advScheme = /* Advection Scheme */
(PID.TID 0000.0001)                      33
(PID.TID 0000.0001)     ;
(PID.TID 0000.0001) PTRACERS_SOM_Advection = /* tracer uses SOM advection scheme */
(PID.TID 0000.0001)                   F
(PID.TID 0000.0001)     ;
(PID.TID 0000.0001) PTRACERS_ImplVertAdv = /* implicit vert. advection flag */
(PID.TID 0000.0001)                   F
(PID.TID 0000.0001)     ;
(PID.TID 0000.0001) PTRACERS_diffKh = /* Laplacian Diffusivity */
(PID.TID 0000.0001)                 0.000000000000000E+00
(PID.TID 0000.0001)     ;
(PID.TID 0000.0001) PTRACERS_diffK4 = /* Biharmonic Diffusivity */
(PID.TID 0000.0001)                 0.000000000000000E+00
(PID.TID 0000.0001)     ;
(PID.TID 0000.0001) PTRACERS_diffKrNr = /* Vertical Diffusivity */
(PID.TID 0000.0001)    35 @  1.000000000000000E-05              /* K =  1: 35 */
(PID.TID 0000.0001)     ;
(PID.TID 0000.0001) PTRACERS_useGMRedi = /* apply GM-Redi */
(PID.TID 0000.0001)                   F
(PID.TID 0000.0001)     ;
(PID.TID 0000.0001) PTRACERS_useDWNSLP = /* apply DOWN-SLOPE Flow */
(PID.TID 0000.0001)                   F
(PID.TID 0000.0001)     ;
(PID.TID 0000.0001) PTRACERS_useKPP = /* apply KPP scheme */
(PID.TID 0000.0001)                   F
(PID.TID 0000.0001)     ;
(PID.TID 0000.0001) PTRACERS_ref = /* Reference vertical profile */
(PID.TID 0000.0001)    35 @  0.000000000000000E+00              /* K =  1: 35 */
(PID.TID 0000.0001)     ;
(PID.TID 0000.0001) PTRACERS_EvPrRn =/* tracer conc. in Evap. & Rain */
(PID.TID 0000.0001)                 1.234567000000000E+05
(PID.TID 0000.0001)     ;
(PID.TID 0000.0001)  -----------------------------------
(PID.TID 0000.0001)  tracer number :   75
(PID.TID 0000.0001) PTRACERS_names = /* Tracer short name */
(PID.TID 0000.0001)               'c58'
(PID.TID 0000.0001)     ;
(PID.TID 0000.0001) PTRACERS_long_names = /* Tracer long name */
(PID.TID 0000.0001)               ''
(PID.TID 0000.0001)     ;
(PID.TID 0000.0001) PTRACERS_ioLabel = /* tracer IO Label */
(PID.TID 0000.0001)               '75'
(PID.TID 0000.0001)     ;
(PID.TID 0000.0001) PTRACERS_advScheme = /* Advection Scheme */
(PID.TID 0000.0001)                      33
(PID.TID 0000.0001)     ;
(PID.TID 0000.0001) PTRACERS_SOM_Advection = /* tracer uses SOM advection scheme */
(PID.TID 0000.0001)                   F
(PID.TID 0000.0001)     ;
(PID.TID 0000.0001) PTRACERS_ImplVertAdv = /* implicit vert. advection flag */
(PID.TID 0000.0001)                   F
(PID.TID 0000.0001)     ;
(PID.TID 0000.0001) PTRACERS_diffKh = /* Laplacian Diffusivity */
(PID.TID 0000.0001)                 0.000000000000000E+00
(PID.TID 0000.0001)     ;
(PID.TID 0000.0001) PTRACERS_diffK4 = /* Biharmonic Diffusivity */
(PID.TID 0000.0001)                 0.000000000000000E+00
(PID.TID 0000.0001)     ;
(PID.TID 0000.0001) PTRACERS_diffKrNr = /* Vertical Diffusivity */
(PID.TID 0000.0001)    35 @  1.000000000000000E-05              /* K =  1: 35 */
(PID.TID 0000.0001)     ;
(PID.TID 0000.0001) PTRACERS_useGMRedi = /* apply GM-Redi */
(PID.TID 0000.0001)                   F
(PID.TID 0000.0001)     ;
(PID.TID 0000.0001) PTRACERS_useDWNSLP = /* apply DOWN-SLOPE Flow */
(PID.TID 0000.0001)                   F
(PID.TID 0000.0001)     ;
(PID.TID 0000.0001) PTRACERS_useKPP = /* apply KPP scheme */
(PID.TID 0000.0001)                   F
(PID.TID 0000.0001)     ;
(PID.TID 0000.0001) PTRACERS_ref = /* Reference vertical profile */
(PID.TID 0000.0001)    35 @  0.000000000000000E+00              /* K =  1: 35 */
(PID.TID 0000.0001)     ;
(PID.TID 0000.0001) PTRACERS_EvPrRn =/* tracer conc. in Evap. & Rain */
(PID.TID 0000.0001)                 1.234567000000000E+05
(PID.TID 0000.0001)     ;
(PID.TID 0000.0001)  -----------------------------------
(PID.TID 0000.0001)  tracer number :   76
(PID.TID 0000.0001) PTRACERS_names = /* Tracer short name */
(PID.TID 0000.0001)               'c59'
(PID.TID 0000.0001)     ;
(PID.TID 0000.0001) PTRACERS_long_names = /* Tracer long name */
(PID.TID 0000.0001)               ''
(PID.TID 0000.0001)     ;
(PID.TID 0000.0001) PTRACERS_ioLabel = /* tracer IO Label */
(PID.TID 0000.0001)               '76'
(PID.TID 0000.0001)     ;
(PID.TID 0000.0001) PTRACERS_advScheme = /* Advection Scheme */
(PID.TID 0000.0001)                      33
(PID.TID 0000.0001)     ;
(PID.TID 0000.0001) PTRACERS_SOM_Advection = /* tracer uses SOM advection scheme */
(PID.TID 0000.0001)                   F
(PID.TID 0000.0001)     ;
(PID.TID 0000.0001) PTRACERS_ImplVertAdv = /* implicit vert. advection flag */
(PID.TID 0000.0001)                   F
(PID.TID 0000.0001)     ;
(PID.TID 0000.0001) PTRACERS_diffKh = /* Laplacian Diffusivity */
(PID.TID 0000.0001)                 0.000000000000000E+00
(PID.TID 0000.0001)     ;
(PID.TID 0000.0001) PTRACERS_diffK4 = /* Biharmonic Diffusivity */
(PID.TID 0000.0001)                 0.000000000000000E+00
(PID.TID 0000.0001)     ;
(PID.TID 0000.0001) PTRACERS_diffKrNr = /* Vertical Diffusivity */
(PID.TID 0000.0001)    35 @  1.000000000000000E-05              /* K =  1: 35 */
(PID.TID 0000.0001)     ;
(PID.TID 0000.0001) PTRACERS_useGMRedi = /* apply GM-Redi */
(PID.TID 0000.0001)                   F
(PID.TID 0000.0001)     ;
(PID.TID 0000.0001) PTRACERS_useDWNSLP = /* apply DOWN-SLOPE Flow */
(PID.TID 0000.0001)                   F
(PID.TID 0000.0001)     ;
(PID.TID 0000.0001) PTRACERS_useKPP = /* apply KPP scheme */
(PID.TID 0000.0001)                   F
(PID.TID 0000.0001)     ;
(PID.TID 0000.0001) PTRACERS_ref = /* Reference vertical profile */
(PID.TID 0000.0001)    35 @  0.000000000000000E+00              /* K =  1: 35 */
(PID.TID 0000.0001)     ;
(PID.TID 0000.0001) PTRACERS_EvPrRn =/* tracer conc. in Evap. & Rain */
(PID.TID 0000.0001)                 1.234567000000000E+05
(PID.TID 0000.0001)     ;
(PID.TID 0000.0001)  -----------------------------------
(PID.TID 0000.0001)  tracer number :   77
(PID.TID 0000.0001) PTRACERS_names = /* Tracer short name */
(PID.TID 0000.0001)               'c60'
(PID.TID 0000.0001)     ;
(PID.TID 0000.0001) PTRACERS_long_names = /* Tracer long name */
(PID.TID 0000.0001)               ''
(PID.TID 0000.0001)     ;
(PID.TID 0000.0001) PTRACERS_ioLabel = /* tracer IO Label */
(PID.TID 0000.0001)               '77'
(PID.TID 0000.0001)     ;
(PID.TID 0000.0001) PTRACERS_advScheme = /* Advection Scheme */
(PID.TID 0000.0001)                      33
(PID.TID 0000.0001)     ;
(PID.TID 0000.0001) PTRACERS_SOM_Advection = /* tracer uses SOM advection scheme */
(PID.TID 0000.0001)                   F
(PID.TID 0000.0001)     ;
(PID.TID 0000.0001) PTRACERS_ImplVertAdv = /* implicit vert. advection flag */
(PID.TID 0000.0001)                   F
(PID.TID 0000.0001)     ;
(PID.TID 0000.0001) PTRACERS_diffKh = /* Laplacian Diffusivity */
(PID.TID 0000.0001)                 0.000000000000000E+00
(PID.TID 0000.0001)     ;
(PID.TID 0000.0001) PTRACERS_diffK4 = /* Biharmonic Diffusivity */
(PID.TID 0000.0001)                 0.000000000000000E+00
(PID.TID 0000.0001)     ;
(PID.TID 0000.0001) PTRACERS_diffKrNr = /* Vertical Diffusivity */
(PID.TID 0000.0001)    35 @  1.000000000000000E-05              /* K =  1: 35 */
(PID.TID 0000.0001)     ;
(PID.TID 0000.0001) PTRACERS_useGMRedi = /* apply GM-Redi */
(PID.TID 0000.0001)                   F
(PID.TID 0000.0001)     ;
(PID.TID 0000.0001) PTRACERS_useDWNSLP = /* apply DOWN-SLOPE Flow */
(PID.TID 0000.0001)                   F
(PID.TID 0000.0001)     ;
(PID.TID 0000.0001) PTRACERS_useKPP = /* apply KPP scheme */
(PID.TID 0000.0001)                   F
(PID.TID 0000.0001)     ;
(PID.TID 0000.0001) PTRACERS_ref = /* Reference vertical profile */
(PID.TID 0000.0001)    35 @  0.000000000000000E+00              /* K =  1: 35 */
(PID.TID 0000.0001)     ;
(PID.TID 0000.0001) PTRACERS_EvPrRn =/* tracer conc. in Evap. & Rain */
(PID.TID 0000.0001)                 1.234567000000000E+05
(PID.TID 0000.0001)     ;
(PID.TID 0000.0001)  -----------------------------------
(PID.TID 0000.0001)  tracer number :   78
(PID.TID 0000.0001) PTRACERS_names = /* Tracer short name */
(PID.TID 0000.0001)               'c61'
(PID.TID 0000.0001)     ;
(PID.TID 0000.0001) PTRACERS_long_names = /* Tracer long name */
(PID.TID 0000.0001)               ''
(PID.TID 0000.0001)     ;
(PID.TID 0000.0001) PTRACERS_ioLabel = /* tracer IO Label */
(PID.TID 0000.0001)               '78'
(PID.TID 0000.0001)     ;
(PID.TID 0000.0001) PTRACERS_advScheme = /* Advection Scheme */
(PID.TID 0000.0001)                      33
(PID.TID 0000.0001)     ;
(PID.TID 0000.0001) PTRACERS_SOM_Advection = /* tracer uses SOM advection scheme */
(PID.TID 0000.0001)                   F
(PID.TID 0000.0001)     ;
(PID.TID 0000.0001) PTRACERS_ImplVertAdv = /* implicit vert. advection flag */
(PID.TID 0000.0001)                   F
(PID.TID 0000.0001)     ;
(PID.TID 0000.0001) PTRACERS_diffKh = /* Laplacian Diffusivity */
(PID.TID 0000.0001)                 0.000000000000000E+00
(PID.TID 0000.0001)     ;
(PID.TID 0000.0001) PTRACERS_diffK4 = /* Biharmonic Diffusivity */
(PID.TID 0000.0001)                 0.000000000000000E+00
(PID.TID 0000.0001)     ;
(PID.TID 0000.0001) PTRACERS_diffKrNr = /* Vertical Diffusivity */
(PID.TID 0000.0001)    35 @  1.000000000000000E-05              /* K =  1: 35 */
(PID.TID 0000.0001)     ;
(PID.TID 0000.0001) PTRACERS_useGMRedi = /* apply GM-Redi */
(PID.TID 0000.0001)                   F
(PID.TID 0000.0001)     ;
(PID.TID 0000.0001) PTRACERS_useDWNSLP = /* apply DOWN-SLOPE Flow */
(PID.TID 0000.0001)                   F
(PID.TID 0000.0001)     ;
(PID.TID 0000.0001) PTRACERS_useKPP = /* apply KPP scheme */
(PID.TID 0000.0001)                   F
(PID.TID 0000.0001)     ;
(PID.TID 0000.0001) PTRACERS_ref = /* Reference vertical profile */
(PID.TID 0000.0001)    35 @  0.000000000000000E+00              /* K =  1: 35 */
(PID.TID 0000.0001)     ;
(PID.TID 0000.0001) PTRACERS_EvPrRn =/* tracer conc. in Evap. & Rain */
(PID.TID 0000.0001)                 1.234567000000000E+05
(PID.TID 0000.0001)     ;
(PID.TID 0000.0001)  -----------------------------------
(PID.TID 0000.0001)  tracer number :   79
(PID.TID 0000.0001) PTRACERS_names = /* Tracer short name */
(PID.TID 0000.0001)               'c62'
(PID.TID 0000.0001)     ;
(PID.TID 0000.0001) PTRACERS_long_names = /* Tracer long name */
(PID.TID 0000.0001)               ''
(PID.TID 0000.0001)     ;
(PID.TID 0000.0001) PTRACERS_ioLabel = /* tracer IO Label */
(PID.TID 0000.0001)               '79'
(PID.TID 0000.0001)     ;
(PID.TID 0000.0001) PTRACERS_advScheme = /* Advection Scheme */
(PID.TID 0000.0001)                      33
(PID.TID 0000.0001)     ;
(PID.TID 0000.0001) PTRACERS_SOM_Advection = /* tracer uses SOM advection scheme */
(PID.TID 0000.0001)                   F
(PID.TID 0000.0001)     ;
(PID.TID 0000.0001) PTRACERS_ImplVertAdv = /* implicit vert. advection flag */
(PID.TID 0000.0001)                   F
(PID.TID 0000.0001)     ;
(PID.TID 0000.0001) PTRACERS_diffKh = /* Laplacian Diffusivity */
(PID.TID 0000.0001)                 0.000000000000000E+00
(PID.TID 0000.0001)     ;
(PID.TID 0000.0001) PTRACERS_diffK4 = /* Biharmonic Diffusivity */
(PID.TID 0000.0001)                 0.000000000000000E+00
(PID.TID 0000.0001)     ;
(PID.TID 0000.0001) PTRACERS_diffKrNr = /* Vertical Diffusivity */
(PID.TID 0000.0001)    35 @  1.000000000000000E-05              /* K =  1: 35 */
(PID.TID 0000.0001)     ;
(PID.TID 0000.0001) PTRACERS_useGMRedi = /* apply GM-Redi */
(PID.TID 0000.0001)                   F
(PID.TID 0000.0001)     ;
(PID.TID 0000.0001) PTRACERS_useDWNSLP = /* apply DOWN-SLOPE Flow */
(PID.TID 0000.0001)                   F
(PID.TID 0000.0001)     ;
(PID.TID 0000.0001) PTRACERS_useKPP = /* apply KPP scheme */
(PID.TID 0000.0001)                   F
(PID.TID 0000.0001)     ;
(PID.TID 0000.0001) PTRACERS_ref = /* Reference vertical profile */
(PID.TID 0000.0001)    35 @  0.000000000000000E+00              /* K =  1: 35 */
(PID.TID 0000.0001)     ;
(PID.TID 0000.0001) PTRACERS_EvPrRn =/* tracer conc. in Evap. & Rain */
(PID.TID 0000.0001)                 1.234567000000000E+05
(PID.TID 0000.0001)     ;
(PID.TID 0000.0001)  -----------------------------------
(PID.TID 0000.0001)  tracer number :   80
(PID.TID 0000.0001) PTRACERS_names = /* Tracer short name */
(PID.TID 0000.0001)               'c63'
(PID.TID 0000.0001)     ;
(PID.TID 0000.0001) PTRACERS_long_names = /* Tracer long name */
(PID.TID 0000.0001)               ''
(PID.TID 0000.0001)     ;
(PID.TID 0000.0001) PTRACERS_ioLabel = /* tracer IO Label */
(PID.TID 0000.0001)               '80'
(PID.TID 0000.0001)     ;
(PID.TID 0000.0001) PTRACERS_advScheme = /* Advection Scheme */
(PID.TID 0000.0001)                      33
(PID.TID 0000.0001)     ;
(PID.TID 0000.0001) PTRACERS_SOM_Advection = /* tracer uses SOM advection scheme */
(PID.TID 0000.0001)                   F
(PID.TID 0000.0001)     ;
(PID.TID 0000.0001) PTRACERS_ImplVertAdv = /* implicit vert. advection flag */
(PID.TID 0000.0001)                   F
(PID.TID 0000.0001)     ;
(PID.TID 0000.0001) PTRACERS_diffKh = /* Laplacian Diffusivity */
(PID.TID 0000.0001)                 0.000000000000000E+00
(PID.TID 0000.0001)     ;
(PID.TID 0000.0001) PTRACERS_diffK4 = /* Biharmonic Diffusivity */
(PID.TID 0000.0001)                 0.000000000000000E+00
(PID.TID 0000.0001)     ;
(PID.TID 0000.0001) PTRACERS_diffKrNr = /* Vertical Diffusivity */
(PID.TID 0000.0001)    35 @  1.000000000000000E-05              /* K =  1: 35 */
(PID.TID 0000.0001)     ;
(PID.TID 0000.0001) PTRACERS_useGMRedi = /* apply GM-Redi */
(PID.TID 0000.0001)                   F
(PID.TID 0000.0001)     ;
(PID.TID 0000.0001) PTRACERS_useDWNSLP = /* apply DOWN-SLOPE Flow */
(PID.TID 0000.0001)                   F
(PID.TID 0000.0001)     ;
(PID.TID 0000.0001) PTRACERS_useKPP = /* apply KPP scheme */
(PID.TID 0000.0001)                   F
(PID.TID 0000.0001)     ;
(PID.TID 0000.0001) PTRACERS_ref = /* Reference vertical profile */
(PID.TID 0000.0001)    35 @  0.000000000000000E+00              /* K =  1: 35 */
(PID.TID 0000.0001)     ;
(PID.TID 0000.0001) PTRACERS_EvPrRn =/* tracer conc. in Evap. & Rain */
(PID.TID 0000.0001)                 1.234567000000000E+05
(PID.TID 0000.0001)     ;
(PID.TID 0000.0001)  -----------------------------------
(PID.TID 0000.0001)  tracer number :   81
(PID.TID 0000.0001) PTRACERS_names = /* Tracer short name */
(PID.TID 0000.0001)               'c64'
(PID.TID 0000.0001)     ;
(PID.TID 0000.0001) PTRACERS_long_names = /* Tracer long name */
(PID.TID 0000.0001)               ''
(PID.TID 0000.0001)     ;
(PID.TID 0000.0001) PTRACERS_ioLabel = /* tracer IO Label */
(PID.TID 0000.0001)               '81'
(PID.TID 0000.0001)     ;
(PID.TID 0000.0001) PTRACERS_advScheme = /* Advection Scheme */
(PID.TID 0000.0001)                      33
(PID.TID 0000.0001)     ;
(PID.TID 0000.0001) PTRACERS_SOM_Advection = /* tracer uses SOM advection scheme */
(PID.TID 0000.0001)                   F
(PID.TID 0000.0001)     ;
(PID.TID 0000.0001) PTRACERS_ImplVertAdv = /* implicit vert. advection flag */
(PID.TID 0000.0001)                   F
(PID.TID 0000.0001)     ;
(PID.TID 0000.0001) PTRACERS_diffKh = /* Laplacian Diffusivity */
(PID.TID 0000.0001)                 0.000000000000000E+00
(PID.TID 0000.0001)     ;
(PID.TID 0000.0001) PTRACERS_diffK4 = /* Biharmonic Diffusivity */
(PID.TID 0000.0001)                 0.000000000000000E+00
(PID.TID 0000.0001)     ;
(PID.TID 0000.0001) PTRACERS_diffKrNr = /* Vertical Diffusivity */
(PID.TID 0000.0001)    35 @  1.000000000000000E-05              /* K =  1: 35 */
(PID.TID 0000.0001)     ;
(PID.TID 0000.0001) PTRACERS_useGMRedi = /* apply GM-Redi */
(PID.TID 0000.0001)                   F
(PID.TID 0000.0001)     ;
(PID.TID 0000.0001) PTRACERS_useDWNSLP = /* apply DOWN-SLOPE Flow */
(PID.TID 0000.0001)                   F
(PID.TID 0000.0001)     ;
(PID.TID 0000.0001) PTRACERS_useKPP = /* apply KPP scheme */
(PID.TID 0000.0001)                   F
(PID.TID 0000.0001)     ;
(PID.TID 0000.0001) PTRACERS_ref = /* Reference vertical profile */
(PID.TID 0000.0001)    35 @  0.000000000000000E+00              /* K =  1: 35 */
(PID.TID 0000.0001)     ;
(PID.TID 0000.0001) PTRACERS_EvPrRn =/* tracer conc. in Evap. & Rain */
(PID.TID 0000.0001)                 1.234567000000000E+05
(PID.TID 0000.0001)     ;
(PID.TID 0000.0001)  -----------------------------------
(PID.TID 0000.0001)  tracer number :   82
(PID.TID 0000.0001) PTRACERS_names = /* Tracer short name */
(PID.TID 0000.0001)               'c65'
(PID.TID 0000.0001)     ;
(PID.TID 0000.0001) PTRACERS_long_names = /* Tracer long name */
(PID.TID 0000.0001)               ''
(PID.TID 0000.0001)     ;
(PID.TID 0000.0001) PTRACERS_ioLabel = /* tracer IO Label */
(PID.TID 0000.0001)               '82'
(PID.TID 0000.0001)     ;
(PID.TID 0000.0001) PTRACERS_advScheme = /* Advection Scheme */
(PID.TID 0000.0001)                      33
(PID.TID 0000.0001)     ;
(PID.TID 0000.0001) PTRACERS_SOM_Advection = /* tracer uses SOM advection scheme */
(PID.TID 0000.0001)                   F
(PID.TID 0000.0001)     ;
(PID.TID 0000.0001) PTRACERS_ImplVertAdv = /* implicit vert. advection flag */
(PID.TID 0000.0001)                   F
(PID.TID 0000.0001)     ;
(PID.TID 0000.0001) PTRACERS_diffKh = /* Laplacian Diffusivity */
(PID.TID 0000.0001)                 0.000000000000000E+00
(PID.TID 0000.0001)     ;
(PID.TID 0000.0001) PTRACERS_diffK4 = /* Biharmonic Diffusivity */
(PID.TID 0000.0001)                 0.000000000000000E+00
(PID.TID 0000.0001)     ;
(PID.TID 0000.0001) PTRACERS_diffKrNr = /* Vertical Diffusivity */
(PID.TID 0000.0001)    35 @  1.000000000000000E-05              /* K =  1: 35 */
(PID.TID 0000.0001)     ;
(PID.TID 0000.0001) PTRACERS_useGMRedi = /* apply GM-Redi */
(PID.TID 0000.0001)                   F
(PID.TID 0000.0001)     ;
(PID.TID 0000.0001) PTRACERS_useDWNSLP = /* apply DOWN-SLOPE Flow */
(PID.TID 0000.0001)                   F
(PID.TID 0000.0001)     ;
(PID.TID 0000.0001) PTRACERS_useKPP = /* apply KPP scheme */
(PID.TID 0000.0001)                   F
(PID.TID 0000.0001)     ;
(PID.TID 0000.0001) PTRACERS_ref = /* Reference vertical profile */
(PID.TID 0000.0001)    35 @  0.000000000000000E+00              /* K =  1: 35 */
(PID.TID 0000.0001)     ;
(PID.TID 0000.0001) PTRACERS_EvPrRn =/* tracer conc. in Evap. & Rain */
(PID.TID 0000.0001)                 1.234567000000000E+05
(PID.TID 0000.0001)     ;
(PID.TID 0000.0001)  -----------------------------------
(PID.TID 0000.0001)  tracer number :   83
(PID.TID 0000.0001) PTRACERS_names = /* Tracer short name */
(PID.TID 0000.0001)               'c66'
(PID.TID 0000.0001)     ;
(PID.TID 0000.0001) PTRACERS_long_names = /* Tracer long name */
(PID.TID 0000.0001)               ''
(PID.TID 0000.0001)     ;
(PID.TID 0000.0001) PTRACERS_ioLabel = /* tracer IO Label */
(PID.TID 0000.0001)               '83'
(PID.TID 0000.0001)     ;
(PID.TID 0000.0001) PTRACERS_advScheme = /* Advection Scheme */
(PID.TID 0000.0001)                      33
(PID.TID 0000.0001)     ;
(PID.TID 0000.0001) PTRACERS_SOM_Advection = /* tracer uses SOM advection scheme */
(PID.TID 0000.0001)                   F
(PID.TID 0000.0001)     ;
(PID.TID 0000.0001) PTRACERS_ImplVertAdv = /* implicit vert. advection flag */
(PID.TID 0000.0001)                   F
(PID.TID 0000.0001)     ;
(PID.TID 0000.0001) PTRACERS_diffKh = /* Laplacian Diffusivity */
(PID.TID 0000.0001)                 0.000000000000000E+00
(PID.TID 0000.0001)     ;
(PID.TID 0000.0001) PTRACERS_diffK4 = /* Biharmonic Diffusivity */
(PID.TID 0000.0001)                 0.000000000000000E+00
(PID.TID 0000.0001)     ;
(PID.TID 0000.0001) PTRACERS_diffKrNr = /* Vertical Diffusivity */
(PID.TID 0000.0001)    35 @  1.000000000000000E-05              /* K =  1: 35 */
(PID.TID 0000.0001)     ;
(PID.TID 0000.0001) PTRACERS_useGMRedi = /* apply GM-Redi */
(PID.TID 0000.0001)                   F
(PID.TID 0000.0001)     ;
(PID.TID 0000.0001) PTRACERS_useDWNSLP = /* apply DOWN-SLOPE Flow */
(PID.TID 0000.0001)                   F
(PID.TID 0000.0001)     ;
(PID.TID 0000.0001) PTRACERS_useKPP = /* apply KPP scheme */
(PID.TID 0000.0001)                   F
(PID.TID 0000.0001)     ;
(PID.TID 0000.0001) PTRACERS_ref = /* Reference vertical profile */
(PID.TID 0000.0001)    35 @  0.000000000000000E+00              /* K =  1: 35 */
(PID.TID 0000.0001)     ;
(PID.TID 0000.0001) PTRACERS_EvPrRn =/* tracer conc. in Evap. & Rain */
(PID.TID 0000.0001)                 1.234567000000000E+05
(PID.TID 0000.0001)     ;
(PID.TID 0000.0001)  -----------------------------------
(PID.TID 0000.0001)  tracer number :   84
(PID.TID 0000.0001) PTRACERS_names = /* Tracer short name */
(PID.TID 0000.0001)               'c67'
(PID.TID 0000.0001)     ;
(PID.TID 0000.0001) PTRACERS_long_names = /* Tracer long name */
(PID.TID 0000.0001)               ''
(PID.TID 0000.0001)     ;
(PID.TID 0000.0001) PTRACERS_ioLabel = /* tracer IO Label */
(PID.TID 0000.0001)               '84'
(PID.TID 0000.0001)     ;
(PID.TID 0000.0001) PTRACERS_advScheme = /* Advection Scheme */
(PID.TID 0000.0001)                      33
(PID.TID 0000.0001)     ;
(PID.TID 0000.0001) PTRACERS_SOM_Advection = /* tracer uses SOM advection scheme */
(PID.TID 0000.0001)                   F
(PID.TID 0000.0001)     ;
(PID.TID 0000.0001) PTRACERS_ImplVertAdv = /* implicit vert. advection flag */
(PID.TID 0000.0001)                   F
(PID.TID 0000.0001)     ;
(PID.TID 0000.0001) PTRACERS_diffKh = /* Laplacian Diffusivity */
(PID.TID 0000.0001)                 0.000000000000000E+00
(PID.TID 0000.0001)     ;
(PID.TID 0000.0001) PTRACERS_diffK4 = /* Biharmonic Diffusivity */
(PID.TID 0000.0001)                 0.000000000000000E+00
(PID.TID 0000.0001)     ;
(PID.TID 0000.0001) PTRACERS_diffKrNr = /* Vertical Diffusivity */
(PID.TID 0000.0001)    35 @  1.000000000000000E-05              /* K =  1: 35 */
(PID.TID 0000.0001)     ;
(PID.TID 0000.0001) PTRACERS_useGMRedi = /* apply GM-Redi */
(PID.TID 0000.0001)                   F
(PID.TID 0000.0001)     ;
(PID.TID 0000.0001) PTRACERS_useDWNSLP = /* apply DOWN-SLOPE Flow */
(PID.TID 0000.0001)                   F
(PID.TID 0000.0001)     ;
(PID.TID 0000.0001) PTRACERS_useKPP = /* apply KPP scheme */
(PID.TID 0000.0001)                   F
(PID.TID 0000.0001)     ;
(PID.TID 0000.0001) PTRACERS_ref = /* Reference vertical profile */
(PID.TID 0000.0001)    35 @  0.000000000000000E+00              /* K =  1: 35 */
(PID.TID 0000.0001)     ;
(PID.TID 0000.0001) PTRACERS_EvPrRn =/* tracer conc. in Evap. & Rain */
(PID.TID 0000.0001)                 1.234567000000000E+05
(PID.TID 0000.0001)     ;
(PID.TID 0000.0001)  -----------------------------------
(PID.TID 0000.0001)  tracer number :   85
(PID.TID 0000.0001) PTRACERS_names = /* Tracer short name */
(PID.TID 0000.0001)               'c68'
(PID.TID 0000.0001)     ;
(PID.TID 0000.0001) PTRACERS_long_names = /* Tracer long name */
(PID.TID 0000.0001)               ''
(PID.TID 0000.0001)     ;
(PID.TID 0000.0001) PTRACERS_ioLabel = /* tracer IO Label */
(PID.TID 0000.0001)               '85'
(PID.TID 0000.0001)     ;
(PID.TID 0000.0001) PTRACERS_advScheme = /* Advection Scheme */
(PID.TID 0000.0001)                      33
(PID.TID 0000.0001)     ;
(PID.TID 0000.0001) PTRACERS_SOM_Advection = /* tracer uses SOM advection scheme */
(PID.TID 0000.0001)                   F
(PID.TID 0000.0001)     ;
(PID.TID 0000.0001) PTRACERS_ImplVertAdv = /* implicit vert. advection flag */
(PID.TID 0000.0001)                   F
(PID.TID 0000.0001)     ;
(PID.TID 0000.0001) PTRACERS_diffKh = /* Laplacian Diffusivity */
(PID.TID 0000.0001)                 0.000000000000000E+00
(PID.TID 0000.0001)     ;
(PID.TID 0000.0001) PTRACERS_diffK4 = /* Biharmonic Diffusivity */
(PID.TID 0000.0001)                 0.000000000000000E+00
(PID.TID 0000.0001)     ;
(PID.TID 0000.0001) PTRACERS_diffKrNr = /* Vertical Diffusivity */
(PID.TID 0000.0001)    35 @  1.000000000000000E-05              /* K =  1: 35 */
(PID.TID 0000.0001)     ;
(PID.TID 0000.0001) PTRACERS_useGMRedi = /* apply GM-Redi */
(PID.TID 0000.0001)                   F
(PID.TID 0000.0001)     ;
(PID.TID 0000.0001) PTRACERS_useDWNSLP = /* apply DOWN-SLOPE Flow */
(PID.TID 0000.0001)                   F
(PID.TID 0000.0001)     ;
(PID.TID 0000.0001) PTRACERS_useKPP = /* apply KPP scheme */
(PID.TID 0000.0001)                   F
(PID.TID 0000.0001)     ;
(PID.TID 0000.0001) PTRACERS_ref = /* Reference vertical profile */
(PID.TID 0000.0001)    35 @  0.000000000000000E+00              /* K =  1: 35 */
(PID.TID 0000.0001)     ;
(PID.TID 0000.0001) PTRACERS_EvPrRn =/* tracer conc. in Evap. & Rain */
(PID.TID 0000.0001)                 1.234567000000000E+05
(PID.TID 0000.0001)     ;
(PID.TID 0000.0001)  -----------------------------------
(PID.TID 0000.0001)  tracer number :   86
(PID.TID 0000.0001) PTRACERS_names = /* Tracer short name */
(PID.TID 0000.0001)               'c69'
(PID.TID 0000.0001)     ;
(PID.TID 0000.0001) PTRACERS_long_names = /* Tracer long name */
(PID.TID 0000.0001)               ''
(PID.TID 0000.0001)     ;
(PID.TID 0000.0001) PTRACERS_ioLabel = /* tracer IO Label */
(PID.TID 0000.0001)               '86'
(PID.TID 0000.0001)     ;
(PID.TID 0000.0001) PTRACERS_advScheme = /* Advection Scheme */
(PID.TID 0000.0001)                      33
(PID.TID 0000.0001)     ;
(PID.TID 0000.0001) PTRACERS_SOM_Advection = /* tracer uses SOM advection scheme */
(PID.TID 0000.0001)                   F
(PID.TID 0000.0001)     ;
(PID.TID 0000.0001) PTRACERS_ImplVertAdv = /* implicit vert. advection flag */
(PID.TID 0000.0001)                   F
(PID.TID 0000.0001)     ;
(PID.TID 0000.0001) PTRACERS_diffKh = /* Laplacian Diffusivity */
(PID.TID 0000.0001)                 0.000000000000000E+00
(PID.TID 0000.0001)     ;
(PID.TID 0000.0001) PTRACERS_diffK4 = /* Biharmonic Diffusivity */
(PID.TID 0000.0001)                 0.000000000000000E+00
(PID.TID 0000.0001)     ;
(PID.TID 0000.0001) PTRACERS_diffKrNr = /* Vertical Diffusivity */
(PID.TID 0000.0001)    35 @  1.000000000000000E-05              /* K =  1: 35 */
(PID.TID 0000.0001)     ;
(PID.TID 0000.0001) PTRACERS_useGMRedi = /* apply GM-Redi */
(PID.TID 0000.0001)                   F
(PID.TID 0000.0001)     ;
(PID.TID 0000.0001) PTRACERS_useDWNSLP = /* apply DOWN-SLOPE Flow */
(PID.TID 0000.0001)                   F
(PID.TID 0000.0001)     ;
(PID.TID 0000.0001) PTRACERS_useKPP = /* apply KPP scheme */
(PID.TID 0000.0001)                   F
(PID.TID 0000.0001)     ;
(PID.TID 0000.0001) PTRACERS_ref = /* Reference vertical profile */
(PID.TID 0000.0001)    35 @  0.000000000000000E+00              /* K =  1: 35 */
(PID.TID 0000.0001)     ;
(PID.TID 0000.0001) PTRACERS_EvPrRn =/* tracer conc. in Evap. & Rain */
(PID.TID 0000.0001)                 1.234567000000000E+05
(PID.TID 0000.0001)     ;
(PID.TID 0000.0001)  -----------------------------------
(PID.TID 0000.0001)  tracer number :   87
(PID.TID 0000.0001) PTRACERS_names = /* Tracer short name */
(PID.TID 0000.0001)               'c70'
(PID.TID 0000.0001)     ;
(PID.TID 0000.0001) PTRACERS_long_names = /* Tracer long name */
(PID.TID 0000.0001)               ''
(PID.TID 0000.0001)     ;
(PID.TID 0000.0001) PTRACERS_ioLabel = /* tracer IO Label */
(PID.TID 0000.0001)               '87'
(PID.TID 0000.0001)     ;
(PID.TID 0000.0001) PTRACERS_advScheme = /* Advection Scheme */
(PID.TID 0000.0001)                      33
(PID.TID 0000.0001)     ;
(PID.TID 0000.0001) PTRACERS_SOM_Advection = /* tracer uses SOM advection scheme */
(PID.TID 0000.0001)                   F
(PID.TID 0000.0001)     ;
(PID.TID 0000.0001) PTRACERS_ImplVertAdv = /* implicit vert. advection flag */
(PID.TID 0000.0001)                   F
(PID.TID 0000.0001)     ;
(PID.TID 0000.0001) PTRACERS_diffKh = /* Laplacian Diffusivity */
(PID.TID 0000.0001)                 0.000000000000000E+00
(PID.TID 0000.0001)     ;
(PID.TID 0000.0001) PTRACERS_diffK4 = /* Biharmonic Diffusivity */
(PID.TID 0000.0001)                 0.000000000000000E+00
(PID.TID 0000.0001)     ;
(PID.TID 0000.0001) PTRACERS_diffKrNr = /* Vertical Diffusivity */
(PID.TID 0000.0001)    35 @  1.000000000000000E-05              /* K =  1: 35 */
(PID.TID 0000.0001)     ;
(PID.TID 0000.0001) PTRACERS_useGMRedi = /* apply GM-Redi */
(PID.TID 0000.0001)                   F
(PID.TID 0000.0001)     ;
(PID.TID 0000.0001) PTRACERS_useDWNSLP = /* apply DOWN-SLOPE Flow */
(PID.TID 0000.0001)                   F
(PID.TID 0000.0001)     ;
(PID.TID 0000.0001) PTRACERS_useKPP = /* apply KPP scheme */
(PID.TID 0000.0001)                   F
(PID.TID 0000.0001)     ;
(PID.TID 0000.0001) PTRACERS_ref = /* Reference vertical profile */
(PID.TID 0000.0001)    35 @  0.000000000000000E+00              /* K =  1: 35 */
(PID.TID 0000.0001)     ;
(PID.TID 0000.0001) PTRACERS_EvPrRn =/* tracer conc. in Evap. & Rain */
(PID.TID 0000.0001)                 1.234567000000000E+05
(PID.TID 0000.0001)     ;
(PID.TID 0000.0001)  -----------------------------------
(PID.TID 0000.0001)  tracer number :   88
(PID.TID 0000.0001) PTRACERS_names = /* Tracer short name */
(PID.TID 0000.0001)               'c71'
(PID.TID 0000.0001)     ;
(PID.TID 0000.0001) PTRACERS_long_names = /* Tracer long name */
(PID.TID 0000.0001)               ''
(PID.TID 0000.0001)     ;
(PID.TID 0000.0001) PTRACERS_ioLabel = /* tracer IO Label */
(PID.TID 0000.0001)               '88'
(PID.TID 0000.0001)     ;
(PID.TID 0000.0001) PTRACERS_advScheme = /* Advection Scheme */
(PID.TID 0000.0001)                      33
(PID.TID 0000.0001)     ;
(PID.TID 0000.0001) PTRACERS_SOM_Advection = /* tracer uses SOM advection scheme */
(PID.TID 0000.0001)                   F
(PID.TID 0000.0001)     ;
(PID.TID 0000.0001) PTRACERS_ImplVertAdv = /* implicit vert. advection flag */
(PID.TID 0000.0001)                   F
(PID.TID 0000.0001)     ;
(PID.TID 0000.0001) PTRACERS_diffKh = /* Laplacian Diffusivity */
(PID.TID 0000.0001)                 0.000000000000000E+00
(PID.TID 0000.0001)     ;
(PID.TID 0000.0001) PTRACERS_diffK4 = /* Biharmonic Diffusivity */
(PID.TID 0000.0001)                 0.000000000000000E+00
(PID.TID 0000.0001)     ;
(PID.TID 0000.0001) PTRACERS_diffKrNr = /* Vertical Diffusivity */
(PID.TID 0000.0001)    35 @  1.000000000000000E-05              /* K =  1: 35 */
(PID.TID 0000.0001)     ;
(PID.TID 0000.0001) PTRACERS_useGMRedi = /* apply GM-Redi */
(PID.TID 0000.0001)                   F
(PID.TID 0000.0001)     ;
(PID.TID 0000.0001) PTRACERS_useDWNSLP = /* apply DOWN-SLOPE Flow */
(PID.TID 0000.0001)                   F
(PID.TID 0000.0001)     ;
(PID.TID 0000.0001) PTRACERS_useKPP = /* apply KPP scheme */
(PID.TID 0000.0001)                   F
(PID.TID 0000.0001)     ;
(PID.TID 0000.0001) PTRACERS_ref = /* Reference vertical profile */
(PID.TID 0000.0001)    35 @  0.000000000000000E+00              /* K =  1: 35 */
(PID.TID 0000.0001)     ;
(PID.TID 0000.0001) PTRACERS_EvPrRn =/* tracer conc. in Evap. & Rain */
(PID.TID 0000.0001)                 1.234567000000000E+05
(PID.TID 0000.0001)     ;
(PID.TID 0000.0001)  -----------------------------------
(PID.TID 0000.0001)  tracer number :   89
(PID.TID 0000.0001) PTRACERS_names = /* Tracer short name */
(PID.TID 0000.0001)               'c72'
(PID.TID 0000.0001)     ;
(PID.TID 0000.0001) PTRACERS_long_names = /* Tracer long name */
(PID.TID 0000.0001)               ''
(PID.TID 0000.0001)     ;
(PID.TID 0000.0001) PTRACERS_ioLabel = /* tracer IO Label */
(PID.TID 0000.0001)               '89'
(PID.TID 0000.0001)     ;
(PID.TID 0000.0001) PTRACERS_advScheme = /* Advection Scheme */
(PID.TID 0000.0001)                      33
(PID.TID 0000.0001)     ;
(PID.TID 0000.0001) PTRACERS_SOM_Advection = /* tracer uses SOM advection scheme */
(PID.TID 0000.0001)                   F
(PID.TID 0000.0001)     ;
(PID.TID 0000.0001) PTRACERS_ImplVertAdv = /* implicit vert. advection flag */
(PID.TID 0000.0001)                   F
(PID.TID 0000.0001)     ;
(PID.TID 0000.0001) PTRACERS_diffKh = /* Laplacian Diffusivity */
(PID.TID 0000.0001)                 0.000000000000000E+00
(PID.TID 0000.0001)     ;
(PID.TID 0000.0001) PTRACERS_diffK4 = /* Biharmonic Diffusivity */
(PID.TID 0000.0001)                 0.000000000000000E+00
(PID.TID 0000.0001)     ;
(PID.TID 0000.0001) PTRACERS_diffKrNr = /* Vertical Diffusivity */
(PID.TID 0000.0001)    35 @  1.000000000000000E-05              /* K =  1: 35 */
(PID.TID 0000.0001)     ;
(PID.TID 0000.0001) PTRACERS_useGMRedi = /* apply GM-Redi */
(PID.TID 0000.0001)                   F
(PID.TID 0000.0001)     ;
(PID.TID 0000.0001) PTRACERS_useDWNSLP = /* apply DOWN-SLOPE Flow */
(PID.TID 0000.0001)                   F
(PID.TID 0000.0001)     ;
(PID.TID 0000.0001) PTRACERS_useKPP = /* apply KPP scheme */
(PID.TID 0000.0001)                   F
(PID.TID 0000.0001)     ;
(PID.TID 0000.0001) PTRACERS_ref = /* Reference vertical profile */
(PID.TID 0000.0001)    35 @  0.000000000000000E+00              /* K =  1: 35 */
(PID.TID 0000.0001)     ;
(PID.TID 0000.0001) PTRACERS_EvPrRn =/* tracer conc. in Evap. & Rain */
(PID.TID 0000.0001)                 1.234567000000000E+05
(PID.TID 0000.0001)     ;
(PID.TID 0000.0001)  -----------------------------------
(PID.TID 0000.0001)  tracer number :   90
(PID.TID 0000.0001) PTRACERS_names = /* Tracer short name */
(PID.TID 0000.0001)               'c73'
(PID.TID 0000.0001)     ;
(PID.TID 0000.0001) PTRACERS_long_names = /* Tracer long name */
(PID.TID 0000.0001)               ''
(PID.TID 0000.0001)     ;
(PID.TID 0000.0001) PTRACERS_ioLabel = /* tracer IO Label */
(PID.TID 0000.0001)               '90'
(PID.TID 0000.0001)     ;
(PID.TID 0000.0001) PTRACERS_advScheme = /* Advection Scheme */
(PID.TID 0000.0001)                      33
(PID.TID 0000.0001)     ;
(PID.TID 0000.0001) PTRACERS_SOM_Advection = /* tracer uses SOM advection scheme */
(PID.TID 0000.0001)                   F
(PID.TID 0000.0001)     ;
(PID.TID 0000.0001) PTRACERS_ImplVertAdv = /* implicit vert. advection flag */
(PID.TID 0000.0001)                   F
(PID.TID 0000.0001)     ;
(PID.TID 0000.0001) PTRACERS_diffKh = /* Laplacian Diffusivity */
(PID.TID 0000.0001)                 0.000000000000000E+00
(PID.TID 0000.0001)     ;
(PID.TID 0000.0001) PTRACERS_diffK4 = /* Biharmonic Diffusivity */
(PID.TID 0000.0001)                 0.000000000000000E+00
(PID.TID 0000.0001)     ;
(PID.TID 0000.0001) PTRACERS_diffKrNr = /* Vertical Diffusivity */
(PID.TID 0000.0001)    35 @  1.000000000000000E-05              /* K =  1: 35 */
(PID.TID 0000.0001)     ;
(PID.TID 0000.0001) PTRACERS_useGMRedi = /* apply GM-Redi */
(PID.TID 0000.0001)                   F
(PID.TID 0000.0001)     ;
(PID.TID 0000.0001) PTRACERS_useDWNSLP = /* apply DOWN-SLOPE Flow */
(PID.TID 0000.0001)                   F
(PID.TID 0000.0001)     ;
(PID.TID 0000.0001) PTRACERS_useKPP = /* apply KPP scheme */
(PID.TID 0000.0001)                   F
(PID.TID 0000.0001)     ;
(PID.TID 0000.0001) PTRACERS_ref = /* Reference vertical profile */
(PID.TID 0000.0001)    35 @  0.000000000000000E+00              /* K =  1: 35 */
(PID.TID 0000.0001)     ;
(PID.TID 0000.0001) PTRACERS_EvPrRn =/* tracer conc. in Evap. & Rain */
(PID.TID 0000.0001)                 1.234567000000000E+05
(PID.TID 0000.0001)     ;
(PID.TID 0000.0001)  -----------------------------------
(PID.TID 0000.0001)  tracer number :   91
(PID.TID 0000.0001) PTRACERS_names = /* Tracer short name */
(PID.TID 0000.0001)               'c74'
(PID.TID 0000.0001)     ;
(PID.TID 0000.0001) PTRACERS_long_names = /* Tracer long name */
(PID.TID 0000.0001)               ''
(PID.TID 0000.0001)     ;
(PID.TID 0000.0001) PTRACERS_ioLabel = /* tracer IO Label */
(PID.TID 0000.0001)               '91'
(PID.TID 0000.0001)     ;
(PID.TID 0000.0001) PTRACERS_advScheme = /* Advection Scheme */
(PID.TID 0000.0001)                      33
(PID.TID 0000.0001)     ;
(PID.TID 0000.0001) PTRACERS_SOM_Advection = /* tracer uses SOM advection scheme */
(PID.TID 0000.0001)                   F
(PID.TID 0000.0001)     ;
(PID.TID 0000.0001) PTRACERS_ImplVertAdv = /* implicit vert. advection flag */
(PID.TID 0000.0001)                   F
(PID.TID 0000.0001)     ;
(PID.TID 0000.0001) PTRACERS_diffKh = /* Laplacian Diffusivity */
(PID.TID 0000.0001)                 0.000000000000000E+00
(PID.TID 0000.0001)     ;
(PID.TID 0000.0001) PTRACERS_diffK4 = /* Biharmonic Diffusivity */
(PID.TID 0000.0001)                 0.000000000000000E+00
(PID.TID 0000.0001)     ;
(PID.TID 0000.0001) PTRACERS_diffKrNr = /* Vertical Diffusivity */
(PID.TID 0000.0001)    35 @  1.000000000000000E-05              /* K =  1: 35 */
(PID.TID 0000.0001)     ;
(PID.TID 0000.0001) PTRACERS_useGMRedi = /* apply GM-Redi */
(PID.TID 0000.0001)                   F
(PID.TID 0000.0001)     ;
(PID.TID 0000.0001) PTRACERS_useDWNSLP = /* apply DOWN-SLOPE Flow */
(PID.TID 0000.0001)                   F
(PID.TID 0000.0001)     ;
(PID.TID 0000.0001) PTRACERS_useKPP = /* apply KPP scheme */
(PID.TID 0000.0001)                   F
(PID.TID 0000.0001)     ;
(PID.TID 0000.0001) PTRACERS_ref = /* Reference vertical profile */
(PID.TID 0000.0001)    35 @  0.000000000000000E+00              /* K =  1: 35 */
(PID.TID 0000.0001)     ;
(PID.TID 0000.0001) PTRACERS_EvPrRn =/* tracer conc. in Evap. & Rain */
(PID.TID 0000.0001)                 1.234567000000000E+05
(PID.TID 0000.0001)     ;
(PID.TID 0000.0001)  -----------------------------------
(PID.TID 0000.0001)  tracer number :   92
(PID.TID 0000.0001) PTRACERS_names = /* Tracer short name */
(PID.TID 0000.0001)               'c75'
(PID.TID 0000.0001)     ;
(PID.TID 0000.0001) PTRACERS_long_names = /* Tracer long name */
(PID.TID 0000.0001)               ''
(PID.TID 0000.0001)     ;
(PID.TID 0000.0001) PTRACERS_ioLabel = /* tracer IO Label */
(PID.TID 0000.0001)               '92'
(PID.TID 0000.0001)     ;
(PID.TID 0000.0001) PTRACERS_advScheme = /* Advection Scheme */
(PID.TID 0000.0001)                      33
(PID.TID 0000.0001)     ;
(PID.TID 0000.0001) PTRACERS_SOM_Advection = /* tracer uses SOM advection scheme */
(PID.TID 0000.0001)                   F
(PID.TID 0000.0001)     ;
(PID.TID 0000.0001) PTRACERS_ImplVertAdv = /* implicit vert. advection flag */
(PID.TID 0000.0001)                   F
(PID.TID 0000.0001)     ;
(PID.TID 0000.0001) PTRACERS_diffKh = /* Laplacian Diffusivity */
(PID.TID 0000.0001)                 0.000000000000000E+00
(PID.TID 0000.0001)     ;
(PID.TID 0000.0001) PTRACERS_diffK4 = /* Biharmonic Diffusivity */
(PID.TID 0000.0001)                 0.000000000000000E+00
(PID.TID 0000.0001)     ;
(PID.TID 0000.0001) PTRACERS_diffKrNr = /* Vertical Diffusivity */
(PID.TID 0000.0001)    35 @  1.000000000000000E-05              /* K =  1: 35 */
(PID.TID 0000.0001)     ;
(PID.TID 0000.0001) PTRACERS_useGMRedi = /* apply GM-Redi */
(PID.TID 0000.0001)                   F
(PID.TID 0000.0001)     ;
(PID.TID 0000.0001) PTRACERS_useDWNSLP = /* apply DOWN-SLOPE Flow */
(PID.TID 0000.0001)                   F
(PID.TID 0000.0001)     ;
(PID.TID 0000.0001) PTRACERS_useKPP = /* apply KPP scheme */
(PID.TID 0000.0001)                   F
(PID.TID 0000.0001)     ;
(PID.TID 0000.0001) PTRACERS_ref = /* Reference vertical profile */
(PID.TID 0000.0001)    35 @  0.000000000000000E+00              /* K =  1: 35 */
(PID.TID 0000.0001)     ;
(PID.TID 0000.0001) PTRACERS_EvPrRn =/* tracer conc. in Evap. & Rain */
(PID.TID 0000.0001)                 1.234567000000000E+05
(PID.TID 0000.0001)     ;
(PID.TID 0000.0001)  -----------------------------------
(PID.TID 0000.0001)  tracer number :   93
(PID.TID 0000.0001) PTRACERS_names = /* Tracer short name */
(PID.TID 0000.0001)               'c76'
(PID.TID 0000.0001)     ;
(PID.TID 0000.0001) PTRACERS_long_names = /* Tracer long name */
(PID.TID 0000.0001)               ''
(PID.TID 0000.0001)     ;
(PID.TID 0000.0001) PTRACERS_ioLabel = /* tracer IO Label */
(PID.TID 0000.0001)               '93'
(PID.TID 0000.0001)     ;
(PID.TID 0000.0001) PTRACERS_advScheme = /* Advection Scheme */
(PID.TID 0000.0001)                      33
(PID.TID 0000.0001)     ;
(PID.TID 0000.0001) PTRACERS_SOM_Advection = /* tracer uses SOM advection scheme */
(PID.TID 0000.0001)                   F
(PID.TID 0000.0001)     ;
(PID.TID 0000.0001) PTRACERS_ImplVertAdv = /* implicit vert. advection flag */
(PID.TID 0000.0001)                   F
(PID.TID 0000.0001)     ;
(PID.TID 0000.0001) PTRACERS_diffKh = /* Laplacian Diffusivity */
(PID.TID 0000.0001)                 0.000000000000000E+00
(PID.TID 0000.0001)     ;
(PID.TID 0000.0001) PTRACERS_diffK4 = /* Biharmonic Diffusivity */
(PID.TID 0000.0001)                 0.000000000000000E+00
(PID.TID 0000.0001)     ;
(PID.TID 0000.0001) PTRACERS_diffKrNr = /* Vertical Diffusivity */
(PID.TID 0000.0001)    35 @  1.000000000000000E-05              /* K =  1: 35 */
(PID.TID 0000.0001)     ;
(PID.TID 0000.0001) PTRACERS_useGMRedi = /* apply GM-Redi */
(PID.TID 0000.0001)                   F
(PID.TID 0000.0001)     ;
(PID.TID 0000.0001) PTRACERS_useDWNSLP = /* apply DOWN-SLOPE Flow */
(PID.TID 0000.0001)                   F
(PID.TID 0000.0001)     ;
(PID.TID 0000.0001) PTRACERS_useKPP = /* apply KPP scheme */
(PID.TID 0000.0001)                   F
(PID.TID 0000.0001)     ;
(PID.TID 0000.0001) PTRACERS_ref = /* Reference vertical profile */
(PID.TID 0000.0001)    35 @  0.000000000000000E+00              /* K =  1: 35 */
(PID.TID 0000.0001)     ;
(PID.TID 0000.0001) PTRACERS_EvPrRn =/* tracer conc. in Evap. & Rain */
(PID.TID 0000.0001)                 1.234567000000000E+05
(PID.TID 0000.0001)     ;
(PID.TID 0000.0001)  -----------------------------------
(PID.TID 0000.0001)  tracer number :   94
(PID.TID 0000.0001) PTRACERS_names = /* Tracer short name */
(PID.TID 0000.0001)               'c77'
(PID.TID 0000.0001)     ;
(PID.TID 0000.0001) PTRACERS_long_names = /* Tracer long name */
(PID.TID 0000.0001)               ''
(PID.TID 0000.0001)     ;
(PID.TID 0000.0001) PTRACERS_ioLabel = /* tracer IO Label */
(PID.TID 0000.0001)               '94'
(PID.TID 0000.0001)     ;
(PID.TID 0000.0001) PTRACERS_advScheme = /* Advection Scheme */
(PID.TID 0000.0001)                      33
(PID.TID 0000.0001)     ;
(PID.TID 0000.0001) PTRACERS_SOM_Advection = /* tracer uses SOM advection scheme */
(PID.TID 0000.0001)                   F
(PID.TID 0000.0001)     ;
(PID.TID 0000.0001) PTRACERS_ImplVertAdv = /* implicit vert. advection flag */
(PID.TID 0000.0001)                   F
(PID.TID 0000.0001)     ;
(PID.TID 0000.0001) PTRACERS_diffKh = /* Laplacian Diffusivity */
(PID.TID 0000.0001)                 0.000000000000000E+00
(PID.TID 0000.0001)     ;
(PID.TID 0000.0001) PTRACERS_diffK4 = /* Biharmonic Diffusivity */
(PID.TID 0000.0001)                 0.000000000000000E+00
(PID.TID 0000.0001)     ;
(PID.TID 0000.0001) PTRACERS_diffKrNr = /* Vertical Diffusivity */
(PID.TID 0000.0001)    35 @  1.000000000000000E-05              /* K =  1: 35 */
(PID.TID 0000.0001)     ;
(PID.TID 0000.0001) PTRACERS_useGMRedi = /* apply GM-Redi */
(PID.TID 0000.0001)                   F
(PID.TID 0000.0001)     ;
(PID.TID 0000.0001) PTRACERS_useDWNSLP = /* apply DOWN-SLOPE Flow */
(PID.TID 0000.0001)                   F
(PID.TID 0000.0001)     ;
(PID.TID 0000.0001) PTRACERS_useKPP = /* apply KPP scheme */
(PID.TID 0000.0001)                   F
(PID.TID 0000.0001)     ;
(PID.TID 0000.0001) PTRACERS_ref = /* Reference vertical profile */
(PID.TID 0000.0001)    35 @  0.000000000000000E+00              /* K =  1: 35 */
(PID.TID 0000.0001)     ;
(PID.TID 0000.0001) PTRACERS_EvPrRn =/* tracer conc. in Evap. & Rain */
(PID.TID 0000.0001)                 1.234567000000000E+05
(PID.TID 0000.0001)     ;
(PID.TID 0000.0001)  -----------------------------------
(PID.TID 0000.0001)  tracer number :   95
(PID.TID 0000.0001) PTRACERS_names = /* Tracer short name */
(PID.TID 0000.0001)               'c78'
(PID.TID 0000.0001)     ;
(PID.TID 0000.0001) PTRACERS_long_names = /* Tracer long name */
(PID.TID 0000.0001)               ''
(PID.TID 0000.0001)     ;
(PID.TID 0000.0001) PTRACERS_ioLabel = /* tracer IO Label */
(PID.TID 0000.0001)               '95'
(PID.TID 0000.0001)     ;
(PID.TID 0000.0001) PTRACERS_advScheme = /* Advection Scheme */
(PID.TID 0000.0001)                      33
(PID.TID 0000.0001)     ;
(PID.TID 0000.0001) PTRACERS_SOM_Advection = /* tracer uses SOM advection scheme */
(PID.TID 0000.0001)                   F
(PID.TID 0000.0001)     ;
(PID.TID 0000.0001) PTRACERS_ImplVertAdv = /* implicit vert. advection flag */
(PID.TID 0000.0001)                   F
(PID.TID 0000.0001)     ;
(PID.TID 0000.0001) PTRACERS_diffKh = /* Laplacian Diffusivity */
(PID.TID 0000.0001)                 0.000000000000000E+00
(PID.TID 0000.0001)     ;
(PID.TID 0000.0001) PTRACERS_diffK4 = /* Biharmonic Diffusivity */
(PID.TID 0000.0001)                 0.000000000000000E+00
(PID.TID 0000.0001)     ;
(PID.TID 0000.0001) PTRACERS_diffKrNr = /* Vertical Diffusivity */
(PID.TID 0000.0001)    35 @  1.000000000000000E-05              /* K =  1: 35 */
(PID.TID 0000.0001)     ;
(PID.TID 0000.0001) PTRACERS_useGMRedi = /* apply GM-Redi */
(PID.TID 0000.0001)                   F
(PID.TID 0000.0001)     ;
(PID.TID 0000.0001) PTRACERS_useDWNSLP = /* apply DOWN-SLOPE Flow */
(PID.TID 0000.0001)                   F
(PID.TID 0000.0001)     ;
(PID.TID 0000.0001) PTRACERS_useKPP = /* apply KPP scheme */
(PID.TID 0000.0001)                   F
(PID.TID 0000.0001)     ;
(PID.TID 0000.0001) PTRACERS_ref = /* Reference vertical profile */
(PID.TID 0000.0001)    35 @  0.000000000000000E+00              /* K =  1: 35 */
(PID.TID 0000.0001)     ;
(PID.TID 0000.0001) PTRACERS_EvPrRn =/* tracer conc. in Evap. & Rain */
(PID.TID 0000.0001)                 1.234567000000000E+05
(PID.TID 0000.0001)     ;
(PID.TID 0000.0001)  -----------------------------------
(PID.TID 0000.0001)  tracer number :   96
(PID.TID 0000.0001) PTRACERS_names = /* Tracer short name */
(PID.TID 0000.0001)               'zc1'
(PID.TID 0000.0001)     ;
(PID.TID 0000.0001) PTRACERS_long_names = /* Tracer long name */
(PID.TID 0000.0001)               ''
(PID.TID 0000.0001)     ;
(PID.TID 0000.0001) PTRACERS_ioLabel = /* tracer IO Label */
(PID.TID 0000.0001)               '96'
(PID.TID 0000.0001)     ;
(PID.TID 0000.0001) PTRACERS_advScheme = /* Advection Scheme */
(PID.TID 0000.0001)                      33
(PID.TID 0000.0001)     ;
(PID.TID 0000.0001) PTRACERS_SOM_Advection = /* tracer uses SOM advection scheme */
(PID.TID 0000.0001)                   F
(PID.TID 0000.0001)     ;
(PID.TID 0000.0001) PTRACERS_ImplVertAdv = /* implicit vert. advection flag */
(PID.TID 0000.0001)                   F
(PID.TID 0000.0001)     ;
(PID.TID 0000.0001) PTRACERS_diffKh = /* Laplacian Diffusivity */
(PID.TID 0000.0001)                 0.000000000000000E+00
(PID.TID 0000.0001)     ;
(PID.TID 0000.0001) PTRACERS_diffK4 = /* Biharmonic Diffusivity */
(PID.TID 0000.0001)                 0.000000000000000E+00
(PID.TID 0000.0001)     ;
(PID.TID 0000.0001) PTRACERS_diffKrNr = /* Vertical Diffusivity */
(PID.TID 0000.0001)    35 @  1.000000000000000E-05              /* K =  1: 35 */
(PID.TID 0000.0001)     ;
(PID.TID 0000.0001) PTRACERS_useGMRedi = /* apply GM-Redi */
(PID.TID 0000.0001)                   F
(PID.TID 0000.0001)     ;
(PID.TID 0000.0001) PTRACERS_useDWNSLP = /* apply DOWN-SLOPE Flow */
(PID.TID 0000.0001)                   F
(PID.TID 0000.0001)     ;
(PID.TID 0000.0001) PTRACERS_useKPP = /* apply KPP scheme */
(PID.TID 0000.0001)                   F
(PID.TID 0000.0001)     ;
(PID.TID 0000.0001) PTRACERS_ref = /* Reference vertical profile */
(PID.TID 0000.0001)    35 @  0.000000000000000E+00              /* K =  1: 35 */
(PID.TID 0000.0001)     ;
(PID.TID 0000.0001) PTRACERS_EvPrRn =/* tracer conc. in Evap. & Rain */
(PID.TID 0000.0001)                 1.234567000000000E+05
(PID.TID 0000.0001)     ;
(PID.TID 0000.0001)  -----------------------------------
(PID.TID 0000.0001)  tracer number :   97
(PID.TID 0000.0001) PTRACERS_names = /* Tracer short name */
(PID.TID 0000.0001)               'zc2'
(PID.TID 0000.0001)     ;
(PID.TID 0000.0001) PTRACERS_long_names = /* Tracer long name */
(PID.TID 0000.0001)               ''
(PID.TID 0000.0001)     ;
(PID.TID 0000.0001) PTRACERS_ioLabel = /* tracer IO Label */
(PID.TID 0000.0001)               '97'
(PID.TID 0000.0001)     ;
(PID.TID 0000.0001) PTRACERS_advScheme = /* Advection Scheme */
(PID.TID 0000.0001)                      33
(PID.TID 0000.0001)     ;
(PID.TID 0000.0001) PTRACERS_SOM_Advection = /* tracer uses SOM advection scheme */
(PID.TID 0000.0001)                   F
(PID.TID 0000.0001)     ;
(PID.TID 0000.0001) PTRACERS_ImplVertAdv = /* implicit vert. advection flag */
(PID.TID 0000.0001)                   F
(PID.TID 0000.0001)     ;
(PID.TID 0000.0001) PTRACERS_diffKh = /* Laplacian Diffusivity */
(PID.TID 0000.0001)                 0.000000000000000E+00
(PID.TID 0000.0001)     ;
(PID.TID 0000.0001) PTRACERS_diffK4 = /* Biharmonic Diffusivity */
(PID.TID 0000.0001)                 0.000000000000000E+00
(PID.TID 0000.0001)     ;
(PID.TID 0000.0001) PTRACERS_diffKrNr = /* Vertical Diffusivity */
(PID.TID 0000.0001)    35 @  1.000000000000000E-05              /* K =  1: 35 */
(PID.TID 0000.0001)     ;
(PID.TID 0000.0001) PTRACERS_useGMRedi = /* apply GM-Redi */
(PID.TID 0000.0001)                   F
(PID.TID 0000.0001)     ;
(PID.TID 0000.0001) PTRACERS_useDWNSLP = /* apply DOWN-SLOPE Flow */
(PID.TID 0000.0001)                   F
(PID.TID 0000.0001)     ;
(PID.TID 0000.0001) PTRACERS_useKPP = /* apply KPP scheme */
(PID.TID 0000.0001)                   F
(PID.TID 0000.0001)     ;
(PID.TID 0000.0001) PTRACERS_ref = /* Reference vertical profile */
(PID.TID 0000.0001)    35 @  0.000000000000000E+00              /* K =  1: 35 */
(PID.TID 0000.0001)     ;
(PID.TID 0000.0001) PTRACERS_EvPrRn =/* tracer conc. in Evap. & Rain */
(PID.TID 0000.0001)                 1.234567000000000E+05
(PID.TID 0000.0001)     ;
(PID.TID 0000.0001)  -----------------------------------
(PID.TID 0000.0001)  tracer number :   98
(PID.TID 0000.0001) PTRACERS_names = /* Tracer short name */
(PID.TID 0000.0001)               'Chl01'
(PID.TID 0000.0001)     ;
(PID.TID 0000.0001) PTRACERS_long_names = /* Tracer long name */
(PID.TID 0000.0001)               ''
(PID.TID 0000.0001)     ;
(PID.TID 0000.0001) PTRACERS_ioLabel = /* tracer IO Label */
(PID.TID 0000.0001)               '98'
(PID.TID 0000.0001)     ;
(PID.TID 0000.0001) PTRACERS_advScheme = /* Advection Scheme */
(PID.TID 0000.0001)                      33
(PID.TID 0000.0001)     ;
(PID.TID 0000.0001) PTRACERS_SOM_Advection = /* tracer uses SOM advection scheme */
(PID.TID 0000.0001)                   F
(PID.TID 0000.0001)     ;
(PID.TID 0000.0001) PTRACERS_ImplVertAdv = /* implicit vert. advection flag */
(PID.TID 0000.0001)                   F
(PID.TID 0000.0001)     ;
(PID.TID 0000.0001) PTRACERS_diffKh = /* Laplacian Diffusivity */
(PID.TID 0000.0001)                 0.000000000000000E+00
(PID.TID 0000.0001)     ;
(PID.TID 0000.0001) PTRACERS_diffK4 = /* Biharmonic Diffusivity */
(PID.TID 0000.0001)                 0.000000000000000E+00
(PID.TID 0000.0001)     ;
(PID.TID 0000.0001) PTRACERS_diffKrNr = /* Vertical Diffusivity */
(PID.TID 0000.0001)    35 @  1.000000000000000E-05              /* K =  1: 35 */
(PID.TID 0000.0001)     ;
(PID.TID 0000.0001) PTRACERS_useGMRedi = /* apply GM-Redi */
(PID.TID 0000.0001)                   F
(PID.TID 0000.0001)     ;
(PID.TID 0000.0001) PTRACERS_useDWNSLP = /* apply DOWN-SLOPE Flow */
(PID.TID 0000.0001)                   F
(PID.TID 0000.0001)     ;
(PID.TID 0000.0001) PTRACERS_useKPP = /* apply KPP scheme */
(PID.TID 0000.0001)                   F
(PID.TID 0000.0001)     ;
(PID.TID 0000.0001) PTRACERS_ref = /* Reference vertical profile */
(PID.TID 0000.0001)    35 @  0.000000000000000E+00              /* K =  1: 35 */
(PID.TID 0000.0001)     ;
(PID.TID 0000.0001) PTRACERS_EvPrRn =/* tracer conc. in Evap. & Rain */
(PID.TID 0000.0001)                 1.234567000000000E+05
(PID.TID 0000.0001)     ;
(PID.TID 0000.0001)  -----------------------------------
(PID.TID 0000.0001)  tracer number :   99
(PID.TID 0000.0001) PTRACERS_names = /* Tracer short name */
(PID.TID 0000.0001)               'Chl02'
(PID.TID 0000.0001)     ;
(PID.TID 0000.0001) PTRACERS_long_names = /* Tracer long name */
(PID.TID 0000.0001)               ''
(PID.TID 0000.0001)     ;
(PID.TID 0000.0001) PTRACERS_ioLabel = /* tracer IO Label */
(PID.TID 0000.0001)               '99'
(PID.TID 0000.0001)     ;
(PID.TID 0000.0001) PTRACERS_advScheme = /* Advection Scheme */
(PID.TID 0000.0001)                      33
(PID.TID 0000.0001)     ;
(PID.TID 0000.0001) PTRACERS_SOM_Advection = /* tracer uses SOM advection scheme */
(PID.TID 0000.0001)                   F
(PID.TID 0000.0001)     ;
(PID.TID 0000.0001) PTRACERS_ImplVertAdv = /* implicit vert. advection flag */
(PID.TID 0000.0001)                   F
(PID.TID 0000.0001)     ;
(PID.TID 0000.0001) PTRACERS_diffKh = /* Laplacian Diffusivity */
(PID.TID 0000.0001)                 0.000000000000000E+00
(PID.TID 0000.0001)     ;
(PID.TID 0000.0001) PTRACERS_diffK4 = /* Biharmonic Diffusivity */
(PID.TID 0000.0001)                 0.000000000000000E+00
(PID.TID 0000.0001)     ;
(PID.TID 0000.0001) PTRACERS_diffKrNr = /* Vertical Diffusivity */
(PID.TID 0000.0001)    35 @  1.000000000000000E-05              /* K =  1: 35 */
(PID.TID 0000.0001)     ;
(PID.TID 0000.0001) PTRACERS_useGMRedi = /* apply GM-Redi */
(PID.TID 0000.0001)                   F
(PID.TID 0000.0001)     ;
(PID.TID 0000.0001) PTRACERS_useDWNSLP = /* apply DOWN-SLOPE Flow */
(PID.TID 0000.0001)                   F
(PID.TID 0000.0001)     ;
(PID.TID 0000.0001) PTRACERS_useKPP = /* apply KPP scheme */
(PID.TID 0000.0001)                   F
(PID.TID 0000.0001)     ;
(PID.TID 0000.0001) PTRACERS_ref = /* Reference vertical profile */
(PID.TID 0000.0001)    35 @  0.000000000000000E+00              /* K =  1: 35 */
(PID.TID 0000.0001)     ;
(PID.TID 0000.0001) PTRACERS_EvPrRn =/* tracer conc. in Evap. & Rain */
(PID.TID 0000.0001)                 1.234567000000000E+05
(PID.TID 0000.0001)     ;
(PID.TID 0000.0001)  -----------------------------------
(PID.TID 0000.0001)  tracer number :  100
(PID.TID 0000.0001) PTRACERS_names = /* Tracer short name */
(PID.TID 0000.0001)               'Chl03'
(PID.TID 0000.0001)     ;
(PID.TID 0000.0001) PTRACERS_long_names = /* Tracer long name */
(PID.TID 0000.0001)               ''
(PID.TID 0000.0001)     ;
(PID.TID 0000.0001) PTRACERS_ioLabel = /* tracer IO Label */
(PID.TID 0000.0001)               '0a'
(PID.TID 0000.0001)     ;
(PID.TID 0000.0001) PTRACERS_advScheme = /* Advection Scheme */
(PID.TID 0000.0001)                      33
(PID.TID 0000.0001)     ;
(PID.TID 0000.0001) PTRACERS_SOM_Advection = /* tracer uses SOM advection scheme */
(PID.TID 0000.0001)                   F
(PID.TID 0000.0001)     ;
(PID.TID 0000.0001) PTRACERS_ImplVertAdv = /* implicit vert. advection flag */
(PID.TID 0000.0001)                   F
(PID.TID 0000.0001)     ;
(PID.TID 0000.0001) PTRACERS_diffKh = /* Laplacian Diffusivity */
(PID.TID 0000.0001)                 0.000000000000000E+00
(PID.TID 0000.0001)     ;
(PID.TID 0000.0001) PTRACERS_diffK4 = /* Biharmonic Diffusivity */
(PID.TID 0000.0001)                 0.000000000000000E+00
(PID.TID 0000.0001)     ;
(PID.TID 0000.0001) PTRACERS_diffKrNr = /* Vertical Diffusivity */
(PID.TID 0000.0001)    35 @  1.000000000000000E-05              /* K =  1: 35 */
(PID.TID 0000.0001)     ;
(PID.TID 0000.0001) PTRACERS_useGMRedi = /* apply GM-Redi */
(PID.TID 0000.0001)                   F
(PID.TID 0000.0001)     ;
(PID.TID 0000.0001) PTRACERS_useDWNSLP = /* apply DOWN-SLOPE Flow */
(PID.TID 0000.0001)                   F
(PID.TID 0000.0001)     ;
(PID.TID 0000.0001) PTRACERS_useKPP = /* apply KPP scheme */
(PID.TID 0000.0001)                   F
(PID.TID 0000.0001)     ;
(PID.TID 0000.0001) PTRACERS_ref = /* Reference vertical profile */
(PID.TID 0000.0001)    35 @  0.000000000000000E+00              /* K =  1: 35 */
(PID.TID 0000.0001)     ;
(PID.TID 0000.0001) PTRACERS_EvPrRn =/* tracer conc. in Evap. & Rain */
(PID.TID 0000.0001)                 1.234567000000000E+05
(PID.TID 0000.0001)     ;
(PID.TID 0000.0001)  -----------------------------------
(PID.TID 0000.0001)  tracer number :  101
(PID.TID 0000.0001) PTRACERS_names = /* Tracer short name */
(PID.TID 0000.0001)               'Chl04'
(PID.TID 0000.0001)     ;
(PID.TID 0000.0001) PTRACERS_long_names = /* Tracer long name */
(PID.TID 0000.0001)               ''
(PID.TID 0000.0001)     ;
(PID.TID 0000.0001) PTRACERS_ioLabel = /* tracer IO Label */
(PID.TID 0000.0001)               '0b'
(PID.TID 0000.0001)     ;
(PID.TID 0000.0001) PTRACERS_advScheme = /* Advection Scheme */
(PID.TID 0000.0001)                      33
(PID.TID 0000.0001)     ;
(PID.TID 0000.0001) PTRACERS_SOM_Advection = /* tracer uses SOM advection scheme */
(PID.TID 0000.0001)                   F
(PID.TID 0000.0001)     ;
(PID.TID 0000.0001) PTRACERS_ImplVertAdv = /* implicit vert. advection flag */
(PID.TID 0000.0001)                   F
(PID.TID 0000.0001)     ;
(PID.TID 0000.0001) PTRACERS_diffKh = /* Laplacian Diffusivity */
(PID.TID 0000.0001)                 0.000000000000000E+00
(PID.TID 0000.0001)     ;
(PID.TID 0000.0001) PTRACERS_diffK4 = /* Biharmonic Diffusivity */
(PID.TID 0000.0001)                 0.000000000000000E+00
(PID.TID 0000.0001)     ;
(PID.TID 0000.0001) PTRACERS_diffKrNr = /* Vertical Diffusivity */
(PID.TID 0000.0001)    35 @  1.000000000000000E-05              /* K =  1: 35 */
(PID.TID 0000.0001)     ;
(PID.TID 0000.0001) PTRACERS_useGMRedi = /* apply GM-Redi */
(PID.TID 0000.0001)                   F
(PID.TID 0000.0001)     ;
(PID.TID 0000.0001) PTRACERS_useDWNSLP = /* apply DOWN-SLOPE Flow */
(PID.TID 0000.0001)                   F
(PID.TID 0000.0001)     ;
(PID.TID 0000.0001) PTRACERS_useKPP = /* apply KPP scheme */
(PID.TID 0000.0001)                   F
(PID.TID 0000.0001)     ;
(PID.TID 0000.0001) PTRACERS_ref = /* Reference vertical profile */
(PID.TID 0000.0001)    35 @  0.000000000000000E+00              /* K =  1: 35 */
(PID.TID 0000.0001)     ;
(PID.TID 0000.0001) PTRACERS_EvPrRn =/* tracer conc. in Evap. & Rain */
(PID.TID 0000.0001)                 1.234567000000000E+05
(PID.TID 0000.0001)     ;
(PID.TID 0000.0001)  -----------------------------------
(PID.TID 0000.0001)  tracer number :  102
(PID.TID 0000.0001) PTRACERS_names = /* Tracer short name */
(PID.TID 0000.0001)               'Chl05'
(PID.TID 0000.0001)     ;
(PID.TID 0000.0001) PTRACERS_long_names = /* Tracer long name */
(PID.TID 0000.0001)               ''
(PID.TID 0000.0001)     ;
(PID.TID 0000.0001) PTRACERS_ioLabel = /* tracer IO Label */
(PID.TID 0000.0001)               '0c'
(PID.TID 0000.0001)     ;
(PID.TID 0000.0001) PTRACERS_advScheme = /* Advection Scheme */
(PID.TID 0000.0001)                      33
(PID.TID 0000.0001)     ;
(PID.TID 0000.0001) PTRACERS_SOM_Advection = /* tracer uses SOM advection scheme */
(PID.TID 0000.0001)                   F
(PID.TID 0000.0001)     ;
(PID.TID 0000.0001) PTRACERS_ImplVertAdv = /* implicit vert. advection flag */
(PID.TID 0000.0001)                   F
(PID.TID 0000.0001)     ;
(PID.TID 0000.0001) PTRACERS_diffKh = /* Laplacian Diffusivity */
(PID.TID 0000.0001)                 0.000000000000000E+00
(PID.TID 0000.0001)     ;
(PID.TID 0000.0001) PTRACERS_diffK4 = /* Biharmonic Diffusivity */
(PID.TID 0000.0001)                 0.000000000000000E+00
(PID.TID 0000.0001)     ;
(PID.TID 0000.0001) PTRACERS_diffKrNr = /* Vertical Diffusivity */
(PID.TID 0000.0001)    35 @  1.000000000000000E-05              /* K =  1: 35 */
(PID.TID 0000.0001)     ;
(PID.TID 0000.0001) PTRACERS_useGMRedi = /* apply GM-Redi */
(PID.TID 0000.0001)                   F
(PID.TID 0000.0001)     ;
(PID.TID 0000.0001) PTRACERS_useDWNSLP = /* apply DOWN-SLOPE Flow */
(PID.TID 0000.0001)                   F
(PID.TID 0000.0001)     ;
(PID.TID 0000.0001) PTRACERS_useKPP = /* apply KPP scheme */
(PID.TID 0000.0001)                   F
(PID.TID 0000.0001)     ;
(PID.TID 0000.0001) PTRACERS_ref = /* Reference vertical profile */
(PID.TID 0000.0001)    35 @  0.000000000000000E+00              /* K =  1: 35 */
(PID.TID 0000.0001)     ;
(PID.TID 0000.0001) PTRACERS_EvPrRn =/* tracer conc. in Evap. & Rain */
(PID.TID 0000.0001)                 1.234567000000000E+05
(PID.TID 0000.0001)     ;
(PID.TID 0000.0001)  -----------------------------------
(PID.TID 0000.0001)  tracer number :  103
(PID.TID 0000.0001) PTRACERS_names = /* Tracer short name */
(PID.TID 0000.0001)               'Chl06'
(PID.TID 0000.0001)     ;
(PID.TID 0000.0001) PTRACERS_long_names = /* Tracer long name */
(PID.TID 0000.0001)               ''
(PID.TID 0000.0001)     ;
(PID.TID 0000.0001) PTRACERS_ioLabel = /* tracer IO Label */
(PID.TID 0000.0001)               '0d'
(PID.TID 0000.0001)     ;
(PID.TID 0000.0001) PTRACERS_advScheme = /* Advection Scheme */
(PID.TID 0000.0001)                      33
(PID.TID 0000.0001)     ;
(PID.TID 0000.0001) PTRACERS_SOM_Advection = /* tracer uses SOM advection scheme */
(PID.TID 0000.0001)                   F
(PID.TID 0000.0001)     ;
(PID.TID 0000.0001) PTRACERS_ImplVertAdv = /* implicit vert. advection flag */
(PID.TID 0000.0001)                   F
(PID.TID 0000.0001)     ;
(PID.TID 0000.0001) PTRACERS_diffKh = /* Laplacian Diffusivity */
(PID.TID 0000.0001)                 0.000000000000000E+00
(PID.TID 0000.0001)     ;
(PID.TID 0000.0001) PTRACERS_diffK4 = /* Biharmonic Diffusivity */
(PID.TID 0000.0001)                 0.000000000000000E+00
(PID.TID 0000.0001)     ;
(PID.TID 0000.0001) PTRACERS_diffKrNr = /* Vertical Diffusivity */
(PID.TID 0000.0001)    35 @  1.000000000000000E-05              /* K =  1: 35 */
(PID.TID 0000.0001)     ;
(PID.TID 0000.0001) PTRACERS_useGMRedi = /* apply GM-Redi */
(PID.TID 0000.0001)                   F
(PID.TID 0000.0001)     ;
(PID.TID 0000.0001) PTRACERS_useDWNSLP = /* apply DOWN-SLOPE Flow */
(PID.TID 0000.0001)                   F
(PID.TID 0000.0001)     ;
(PID.TID 0000.0001) PTRACERS_useKPP = /* apply KPP scheme */
(PID.TID 0000.0001)                   F
(PID.TID 0000.0001)     ;
(PID.TID 0000.0001) PTRACERS_ref = /* Reference vertical profile */
(PID.TID 0000.0001)    35 @  0.000000000000000E+00              /* K =  1: 35 */
(PID.TID 0000.0001)     ;
(PID.TID 0000.0001) PTRACERS_EvPrRn =/* tracer conc. in Evap. & Rain */
(PID.TID 0000.0001)                 1.234567000000000E+05
(PID.TID 0000.0001)     ;
(PID.TID 0000.0001)  -----------------------------------
(PID.TID 0000.0001)  tracer number :  104
(PID.TID 0000.0001) PTRACERS_names = /* Tracer short name */
(PID.TID 0000.0001)               'Chl07'
(PID.TID 0000.0001)     ;
(PID.TID 0000.0001) PTRACERS_long_names = /* Tracer long name */
(PID.TID 0000.0001)               ''
(PID.TID 0000.0001)     ;
(PID.TID 0000.0001) PTRACERS_ioLabel = /* tracer IO Label */
(PID.TID 0000.0001)               '0e'
(PID.TID 0000.0001)     ;
(PID.TID 0000.0001) PTRACERS_advScheme = /* Advection Scheme */
(PID.TID 0000.0001)                      33
(PID.TID 0000.0001)     ;
(PID.TID 0000.0001) PTRACERS_SOM_Advection = /* tracer uses SOM advection scheme */
(PID.TID 0000.0001)                   F
(PID.TID 0000.0001)     ;
(PID.TID 0000.0001) PTRACERS_ImplVertAdv = /* implicit vert. advection flag */
(PID.TID 0000.0001)                   F
(PID.TID 0000.0001)     ;
(PID.TID 0000.0001) PTRACERS_diffKh = /* Laplacian Diffusivity */
(PID.TID 0000.0001)                 0.000000000000000E+00
(PID.TID 0000.0001)     ;
(PID.TID 0000.0001) PTRACERS_diffK4 = /* Biharmonic Diffusivity */
(PID.TID 0000.0001)                 0.000000000000000E+00
(PID.TID 0000.0001)     ;
(PID.TID 0000.0001) PTRACERS_diffKrNr = /* Vertical Diffusivity */
(PID.TID 0000.0001)    35 @  1.000000000000000E-05              /* K =  1: 35 */
(PID.TID 0000.0001)     ;
(PID.TID 0000.0001) PTRACERS_useGMRedi = /* apply GM-Redi */
(PID.TID 0000.0001)                   F
(PID.TID 0000.0001)     ;
(PID.TID 0000.0001) PTRACERS_useDWNSLP = /* apply DOWN-SLOPE Flow */
(PID.TID 0000.0001)                   F
(PID.TID 0000.0001)     ;
(PID.TID 0000.0001) PTRACERS_useKPP = /* apply KPP scheme */
(PID.TID 0000.0001)                   F
(PID.TID 0000.0001)     ;
(PID.TID 0000.0001) PTRACERS_ref = /* Reference vertical profile */
(PID.TID 0000.0001)    35 @  0.000000000000000E+00              /* K =  1: 35 */
(PID.TID 0000.0001)     ;
(PID.TID 0000.0001) PTRACERS_EvPrRn =/* tracer conc. in Evap. & Rain */
(PID.TID 0000.0001)                 1.234567000000000E+05
(PID.TID 0000.0001)     ;
(PID.TID 0000.0001)  -----------------------------------
(PID.TID 0000.0001)  tracer number :  105
(PID.TID 0000.0001) PTRACERS_names = /* Tracer short name */
(PID.TID 0000.0001)               'Chl08'
(PID.TID 0000.0001)     ;
(PID.TID 0000.0001) PTRACERS_long_names = /* Tracer long name */
(PID.TID 0000.0001)               ''
(PID.TID 0000.0001)     ;
(PID.TID 0000.0001) PTRACERS_ioLabel = /* tracer IO Label */
(PID.TID 0000.0001)               '0f'
(PID.TID 0000.0001)     ;
(PID.TID 0000.0001) PTRACERS_advScheme = /* Advection Scheme */
(PID.TID 0000.0001)                      33
(PID.TID 0000.0001)     ;
(PID.TID 0000.0001) PTRACERS_SOM_Advection = /* tracer uses SOM advection scheme */
(PID.TID 0000.0001)                   F
(PID.TID 0000.0001)     ;
(PID.TID 0000.0001) PTRACERS_ImplVertAdv = /* implicit vert. advection flag */
(PID.TID 0000.0001)                   F
(PID.TID 0000.0001)     ;
(PID.TID 0000.0001) PTRACERS_diffKh = /* Laplacian Diffusivity */
(PID.TID 0000.0001)                 0.000000000000000E+00
(PID.TID 0000.0001)     ;
(PID.TID 0000.0001) PTRACERS_diffK4 = /* Biharmonic Diffusivity */
(PID.TID 0000.0001)                 0.000000000000000E+00
(PID.TID 0000.0001)     ;
(PID.TID 0000.0001) PTRACERS_diffKrNr = /* Vertical Diffusivity */
(PID.TID 0000.0001)    35 @  1.000000000000000E-05              /* K =  1: 35 */
(PID.TID 0000.0001)     ;
(PID.TID 0000.0001) PTRACERS_useGMRedi = /* apply GM-Redi */
(PID.TID 0000.0001)                   F
(PID.TID 0000.0001)     ;
(PID.TID 0000.0001) PTRACERS_useDWNSLP = /* apply DOWN-SLOPE Flow */
(PID.TID 0000.0001)                   F
(PID.TID 0000.0001)     ;
(PID.TID 0000.0001) PTRACERS_useKPP = /* apply KPP scheme */
(PID.TID 0000.0001)                   F
(PID.TID 0000.0001)     ;
(PID.TID 0000.0001) PTRACERS_ref = /* Reference vertical profile */
(PID.TID 0000.0001)    35 @  0.000000000000000E+00              /* K =  1: 35 */
(PID.TID 0000.0001)     ;
(PID.TID 0000.0001) PTRACERS_EvPrRn =/* tracer conc. in Evap. & Rain */
(PID.TID 0000.0001)                 1.234567000000000E+05
(PID.TID 0000.0001)     ;
(PID.TID 0000.0001)  -----------------------------------
(PID.TID 0000.0001)  tracer number :  106
(PID.TID 0000.0001) PTRACERS_names = /* Tracer short name */
(PID.TID 0000.0001)               'Chl09'
(PID.TID 0000.0001)     ;
(PID.TID 0000.0001) PTRACERS_long_names = /* Tracer long name */
(PID.TID 0000.0001)               ''
(PID.TID 0000.0001)     ;
(PID.TID 0000.0001) PTRACERS_ioLabel = /* tracer IO Label */
(PID.TID 0000.0001)               '0g'
(PID.TID 0000.0001)     ;
(PID.TID 0000.0001) PTRACERS_advScheme = /* Advection Scheme */
(PID.TID 0000.0001)                      33
(PID.TID 0000.0001)     ;
(PID.TID 0000.0001) PTRACERS_SOM_Advection = /* tracer uses SOM advection scheme */
(PID.TID 0000.0001)                   F
(PID.TID 0000.0001)     ;
(PID.TID 0000.0001) PTRACERS_ImplVertAdv = /* implicit vert. advection flag */
(PID.TID 0000.0001)                   F
(PID.TID 0000.0001)     ;
(PID.TID 0000.0001) PTRACERS_diffKh = /* Laplacian Diffusivity */
(PID.TID 0000.0001)                 0.000000000000000E+00
(PID.TID 0000.0001)     ;
(PID.TID 0000.0001) PTRACERS_diffK4 = /* Biharmonic Diffusivity */
(PID.TID 0000.0001)                 0.000000000000000E+00
(PID.TID 0000.0001)     ;
(PID.TID 0000.0001) PTRACERS_diffKrNr = /* Vertical Diffusivity */
(PID.TID 0000.0001)    35 @  1.000000000000000E-05              /* K =  1: 35 */
(PID.TID 0000.0001)     ;
(PID.TID 0000.0001) PTRACERS_useGMRedi = /* apply GM-Redi */
(PID.TID 0000.0001)                   F
(PID.TID 0000.0001)     ;
(PID.TID 0000.0001) PTRACERS_useDWNSLP = /* apply DOWN-SLOPE Flow */
(PID.TID 0000.0001)                   F
(PID.TID 0000.0001)     ;
(PID.TID 0000.0001) PTRACERS_useKPP = /* apply KPP scheme */
(PID.TID 0000.0001)                   F
(PID.TID 0000.0001)     ;
(PID.TID 0000.0001) PTRACERS_ref = /* Reference vertical profile */
(PID.TID 0000.0001)    35 @  0.000000000000000E+00              /* K =  1: 35 */
(PID.TID 0000.0001)     ;
(PID.TID 0000.0001) PTRACERS_EvPrRn =/* tracer conc. in Evap. & Rain */
(PID.TID 0000.0001)                 1.234567000000000E+05
(PID.TID 0000.0001)     ;
(PID.TID 0000.0001)  -----------------------------------
(PID.TID 0000.0001)  tracer number :  107
(PID.TID 0000.0001) PTRACERS_names = /* Tracer short name */
(PID.TID 0000.0001)               'Chl10'
(PID.TID 0000.0001)     ;
(PID.TID 0000.0001) PTRACERS_long_names = /* Tracer long name */
(PID.TID 0000.0001)               ''
(PID.TID 0000.0001)     ;
(PID.TID 0000.0001) PTRACERS_ioLabel = /* tracer IO Label */
(PID.TID 0000.0001)               '0h'
(PID.TID 0000.0001)     ;
(PID.TID 0000.0001) PTRACERS_advScheme = /* Advection Scheme */
(PID.TID 0000.0001)                      33
(PID.TID 0000.0001)     ;
(PID.TID 0000.0001) PTRACERS_SOM_Advection = /* tracer uses SOM advection scheme */
(PID.TID 0000.0001)                   F
(PID.TID 0000.0001)     ;
(PID.TID 0000.0001) PTRACERS_ImplVertAdv = /* implicit vert. advection flag */
(PID.TID 0000.0001)                   F
(PID.TID 0000.0001)     ;
(PID.TID 0000.0001) PTRACERS_diffKh = /* Laplacian Diffusivity */
(PID.TID 0000.0001)                 0.000000000000000E+00
(PID.TID 0000.0001)     ;
(PID.TID 0000.0001) PTRACERS_diffK4 = /* Biharmonic Diffusivity */
(PID.TID 0000.0001)                 0.000000000000000E+00
(PID.TID 0000.0001)     ;
(PID.TID 0000.0001) PTRACERS_diffKrNr = /* Vertical Diffusivity */
(PID.TID 0000.0001)    35 @  1.000000000000000E-05              /* K =  1: 35 */
(PID.TID 0000.0001)     ;
(PID.TID 0000.0001) PTRACERS_useGMRedi = /* apply GM-Redi */
(PID.TID 0000.0001)                   F
(PID.TID 0000.0001)     ;
(PID.TID 0000.0001) PTRACERS_useDWNSLP = /* apply DOWN-SLOPE Flow */
(PID.TID 0000.0001)                   F
(PID.TID 0000.0001)     ;
(PID.TID 0000.0001) PTRACERS_useKPP = /* apply KPP scheme */
(PID.TID 0000.0001)                   F
(PID.TID 0000.0001)     ;
(PID.TID 0000.0001) PTRACERS_ref = /* Reference vertical profile */
(PID.TID 0000.0001)    35 @  0.000000000000000E+00              /* K =  1: 35 */
(PID.TID 0000.0001)     ;
(PID.TID 0000.0001) PTRACERS_EvPrRn =/* tracer conc. in Evap. & Rain */
(PID.TID 0000.0001)                 1.234567000000000E+05
(PID.TID 0000.0001)     ;
(PID.TID 0000.0001)  -----------------------------------
(PID.TID 0000.0001)  tracer number :  108
(PID.TID 0000.0001) PTRACERS_names = /* Tracer short name */
(PID.TID 0000.0001)               'Chl11'
(PID.TID 0000.0001)     ;
(PID.TID 0000.0001) PTRACERS_long_names = /* Tracer long name */
(PID.TID 0000.0001)               ''
(PID.TID 0000.0001)     ;
(PID.TID 0000.0001) PTRACERS_ioLabel = /* tracer IO Label */
(PID.TID 0000.0001)               '0i'
(PID.TID 0000.0001)     ;
(PID.TID 0000.0001) PTRACERS_advScheme = /* Advection Scheme */
(PID.TID 0000.0001)                      33
(PID.TID 0000.0001)     ;
(PID.TID 0000.0001) PTRACERS_SOM_Advection = /* tracer uses SOM advection scheme */
(PID.TID 0000.0001)                   F
(PID.TID 0000.0001)     ;
(PID.TID 0000.0001) PTRACERS_ImplVertAdv = /* implicit vert. advection flag */
(PID.TID 0000.0001)                   F
(PID.TID 0000.0001)     ;
(PID.TID 0000.0001) PTRACERS_diffKh = /* Laplacian Diffusivity */
(PID.TID 0000.0001)                 0.000000000000000E+00
(PID.TID 0000.0001)     ;
(PID.TID 0000.0001) PTRACERS_diffK4 = /* Biharmonic Diffusivity */
(PID.TID 0000.0001)                 0.000000000000000E+00
(PID.TID 0000.0001)     ;
(PID.TID 0000.0001) PTRACERS_diffKrNr = /* Vertical Diffusivity */
(PID.TID 0000.0001)    35 @  1.000000000000000E-05              /* K =  1: 35 */
(PID.TID 0000.0001)     ;
(PID.TID 0000.0001) PTRACERS_useGMRedi = /* apply GM-Redi */
(PID.TID 0000.0001)                   F
(PID.TID 0000.0001)     ;
(PID.TID 0000.0001) PTRACERS_useDWNSLP = /* apply DOWN-SLOPE Flow */
(PID.TID 0000.0001)                   F
(PID.TID 0000.0001)     ;
(PID.TID 0000.0001) PTRACERS_useKPP = /* apply KPP scheme */
(PID.TID 0000.0001)                   F
(PID.TID 0000.0001)     ;
(PID.TID 0000.0001) PTRACERS_ref = /* Reference vertical profile */
(PID.TID 0000.0001)    35 @  0.000000000000000E+00              /* K =  1: 35 */
(PID.TID 0000.0001)     ;
(PID.TID 0000.0001) PTRACERS_EvPrRn =/* tracer conc. in Evap. & Rain */
(PID.TID 0000.0001)                 1.234567000000000E+05
(PID.TID 0000.0001)     ;
(PID.TID 0000.0001)  -----------------------------------
(PID.TID 0000.0001)  tracer number :  109
(PID.TID 0000.0001) PTRACERS_names = /* Tracer short name */
(PID.TID 0000.0001)               'Chl12'
(PID.TID 0000.0001)     ;
(PID.TID 0000.0001) PTRACERS_long_names = /* Tracer long name */
(PID.TID 0000.0001)               ''
(PID.TID 0000.0001)     ;
(PID.TID 0000.0001) PTRACERS_ioLabel = /* tracer IO Label */
(PID.TID 0000.0001)               '0j'
(PID.TID 0000.0001)     ;
(PID.TID 0000.0001) PTRACERS_advScheme = /* Advection Scheme */
(PID.TID 0000.0001)                      33
(PID.TID 0000.0001)     ;
(PID.TID 0000.0001) PTRACERS_SOM_Advection = /* tracer uses SOM advection scheme */
(PID.TID 0000.0001)                   F
(PID.TID 0000.0001)     ;
(PID.TID 0000.0001) PTRACERS_ImplVertAdv = /* implicit vert. advection flag */
(PID.TID 0000.0001)                   F
(PID.TID 0000.0001)     ;
(PID.TID 0000.0001) PTRACERS_diffKh = /* Laplacian Diffusivity */
(PID.TID 0000.0001)                 0.000000000000000E+00
(PID.TID 0000.0001)     ;
(PID.TID 0000.0001) PTRACERS_diffK4 = /* Biharmonic Diffusivity */
(PID.TID 0000.0001)                 0.000000000000000E+00
(PID.TID 0000.0001)     ;
(PID.TID 0000.0001) PTRACERS_diffKrNr = /* Vertical Diffusivity */
(PID.TID 0000.0001)    35 @  1.000000000000000E-05              /* K =  1: 35 */
(PID.TID 0000.0001)     ;
(PID.TID 0000.0001) PTRACERS_useGMRedi = /* apply GM-Redi */
(PID.TID 0000.0001)                   F
(PID.TID 0000.0001)     ;
(PID.TID 0000.0001) PTRACERS_useDWNSLP = /* apply DOWN-SLOPE Flow */
(PID.TID 0000.0001)                   F
(PID.TID 0000.0001)     ;
(PID.TID 0000.0001) PTRACERS_useKPP = /* apply KPP scheme */
(PID.TID 0000.0001)                   F
(PID.TID 0000.0001)     ;
(PID.TID 0000.0001) PTRACERS_ref = /* Reference vertical profile */
(PID.TID 0000.0001)    35 @  0.000000000000000E+00              /* K =  1: 35 */
(PID.TID 0000.0001)     ;
(PID.TID 0000.0001) PTRACERS_EvPrRn =/* tracer conc. in Evap. & Rain */
(PID.TID 0000.0001)                 1.234567000000000E+05
(PID.TID 0000.0001)     ;
(PID.TID 0000.0001)  -----------------------------------
(PID.TID 0000.0001)  tracer number :  110
(PID.TID 0000.0001) PTRACERS_names = /* Tracer short name */
(PID.TID 0000.0001)               'Chl13'
(PID.TID 0000.0001)     ;
(PID.TID 0000.0001) PTRACERS_long_names = /* Tracer long name */
(PID.TID 0000.0001)               ''
(PID.TID 0000.0001)     ;
(PID.TID 0000.0001) PTRACERS_ioLabel = /* tracer IO Label */
(PID.TID 0000.0001)               '0k'
(PID.TID 0000.0001)     ;
(PID.TID 0000.0001) PTRACERS_advScheme = /* Advection Scheme */
(PID.TID 0000.0001)                      33
(PID.TID 0000.0001)     ;
(PID.TID 0000.0001) PTRACERS_SOM_Advection = /* tracer uses SOM advection scheme */
(PID.TID 0000.0001)                   F
(PID.TID 0000.0001)     ;
(PID.TID 0000.0001) PTRACERS_ImplVertAdv = /* implicit vert. advection flag */
(PID.TID 0000.0001)                   F
(PID.TID 0000.0001)     ;
(PID.TID 0000.0001) PTRACERS_diffKh = /* Laplacian Diffusivity */
(PID.TID 0000.0001)                 0.000000000000000E+00
(PID.TID 0000.0001)     ;
(PID.TID 0000.0001) PTRACERS_diffK4 = /* Biharmonic Diffusivity */
(PID.TID 0000.0001)                 0.000000000000000E+00
(PID.TID 0000.0001)     ;
(PID.TID 0000.0001) PTRACERS_diffKrNr = /* Vertical Diffusivity */
(PID.TID 0000.0001)    35 @  1.000000000000000E-05              /* K =  1: 35 */
(PID.TID 0000.0001)     ;
(PID.TID 0000.0001) PTRACERS_useGMRedi = /* apply GM-Redi */
(PID.TID 0000.0001)                   F
(PID.TID 0000.0001)     ;
(PID.TID 0000.0001) PTRACERS_useDWNSLP = /* apply DOWN-SLOPE Flow */
(PID.TID 0000.0001)                   F
(PID.TID 0000.0001)     ;
(PID.TID 0000.0001) PTRACERS_useKPP = /* apply KPP scheme */
(PID.TID 0000.0001)                   F
(PID.TID 0000.0001)     ;
(PID.TID 0000.0001) PTRACERS_ref = /* Reference vertical profile */
(PID.TID 0000.0001)    35 @  0.000000000000000E+00              /* K =  1: 35 */
(PID.TID 0000.0001)     ;
(PID.TID 0000.0001) PTRACERS_EvPrRn =/* tracer conc. in Evap. & Rain */
(PID.TID 0000.0001)                 1.234567000000000E+05
(PID.TID 0000.0001)     ;
(PID.TID 0000.0001)  -----------------------------------
(PID.TID 0000.0001)  tracer number :  111
(PID.TID 0000.0001) PTRACERS_names = /* Tracer short name */
(PID.TID 0000.0001)               'Chl14'
(PID.TID 0000.0001)     ;
(PID.TID 0000.0001) PTRACERS_long_names = /* Tracer long name */
(PID.TID 0000.0001)               ''
(PID.TID 0000.0001)     ;
(PID.TID 0000.0001) PTRACERS_ioLabel = /* tracer IO Label */
(PID.TID 0000.0001)               '0l'
(PID.TID 0000.0001)     ;
(PID.TID 0000.0001) PTRACERS_advScheme = /* Advection Scheme */
(PID.TID 0000.0001)                      33
(PID.TID 0000.0001)     ;
(PID.TID 0000.0001) PTRACERS_SOM_Advection = /* tracer uses SOM advection scheme */
(PID.TID 0000.0001)                   F
(PID.TID 0000.0001)     ;
(PID.TID 0000.0001) PTRACERS_ImplVertAdv = /* implicit vert. advection flag */
(PID.TID 0000.0001)                   F
(PID.TID 0000.0001)     ;
(PID.TID 0000.0001) PTRACERS_diffKh = /* Laplacian Diffusivity */
(PID.TID 0000.0001)                 0.000000000000000E+00
(PID.TID 0000.0001)     ;
(PID.TID 0000.0001) PTRACERS_diffK4 = /* Biharmonic Diffusivity */
(PID.TID 0000.0001)                 0.000000000000000E+00
(PID.TID 0000.0001)     ;
(PID.TID 0000.0001) PTRACERS_diffKrNr = /* Vertical Diffusivity */
(PID.TID 0000.0001)    35 @  1.000000000000000E-05              /* K =  1: 35 */
(PID.TID 0000.0001)     ;
(PID.TID 0000.0001) PTRACERS_useGMRedi = /* apply GM-Redi */
(PID.TID 0000.0001)                   F
(PID.TID 0000.0001)     ;
(PID.TID 0000.0001) PTRACERS_useDWNSLP = /* apply DOWN-SLOPE Flow */
(PID.TID 0000.0001)                   F
(PID.TID 0000.0001)     ;
(PID.TID 0000.0001) PTRACERS_useKPP = /* apply KPP scheme */
(PID.TID 0000.0001)                   F
(PID.TID 0000.0001)     ;
(PID.TID 0000.0001) PTRACERS_ref = /* Reference vertical profile */
(PID.TID 0000.0001)    35 @  0.000000000000000E+00              /* K =  1: 35 */
(PID.TID 0000.0001)     ;
(PID.TID 0000.0001) PTRACERS_EvPrRn =/* tracer conc. in Evap. & Rain */
(PID.TID 0000.0001)                 1.234567000000000E+05
(PID.TID 0000.0001)     ;
(PID.TID 0000.0001)  -----------------------------------
(PID.TID 0000.0001)  tracer number :  112
(PID.TID 0000.0001) PTRACERS_names = /* Tracer short name */
(PID.TID 0000.0001)               'Chl15'
(PID.TID 0000.0001)     ;
(PID.TID 0000.0001) PTRACERS_long_names = /* Tracer long name */
(PID.TID 0000.0001)               ''
(PID.TID 0000.0001)     ;
(PID.TID 0000.0001) PTRACERS_ioLabel = /* tracer IO Label */
(PID.TID 0000.0001)               '0m'
(PID.TID 0000.0001)     ;
(PID.TID 0000.0001) PTRACERS_advScheme = /* Advection Scheme */
(PID.TID 0000.0001)                      33
(PID.TID 0000.0001)     ;
(PID.TID 0000.0001) PTRACERS_SOM_Advection = /* tracer uses SOM advection scheme */
(PID.TID 0000.0001)                   F
(PID.TID 0000.0001)     ;
(PID.TID 0000.0001) PTRACERS_ImplVertAdv = /* implicit vert. advection flag */
(PID.TID 0000.0001)                   F
(PID.TID 0000.0001)     ;
(PID.TID 0000.0001) PTRACERS_diffKh = /* Laplacian Diffusivity */
(PID.TID 0000.0001)                 0.000000000000000E+00
(PID.TID 0000.0001)     ;
(PID.TID 0000.0001) PTRACERS_diffK4 = /* Biharmonic Diffusivity */
(PID.TID 0000.0001)                 0.000000000000000E+00
(PID.TID 0000.0001)     ;
(PID.TID 0000.0001) PTRACERS_diffKrNr = /* Vertical Diffusivity */
(PID.TID 0000.0001)    35 @  1.000000000000000E-05              /* K =  1: 35 */
(PID.TID 0000.0001)     ;
(PID.TID 0000.0001) PTRACERS_useGMRedi = /* apply GM-Redi */
(PID.TID 0000.0001)                   F
(PID.TID 0000.0001)     ;
(PID.TID 0000.0001) PTRACERS_useDWNSLP = /* apply DOWN-SLOPE Flow */
(PID.TID 0000.0001)                   F
(PID.TID 0000.0001)     ;
(PID.TID 0000.0001) PTRACERS_useKPP = /* apply KPP scheme */
(PID.TID 0000.0001)                   F
(PID.TID 0000.0001)     ;
(PID.TID 0000.0001) PTRACERS_ref = /* Reference vertical profile */
(PID.TID 0000.0001)    35 @  0.000000000000000E+00              /* K =  1: 35 */
(PID.TID 0000.0001)     ;
(PID.TID 0000.0001) PTRACERS_EvPrRn =/* tracer conc. in Evap. & Rain */
(PID.TID 0000.0001)                 1.234567000000000E+05
(PID.TID 0000.0001)     ;
(PID.TID 0000.0001)  -----------------------------------
(PID.TID 0000.0001)  tracer number :  113
(PID.TID 0000.0001) PTRACERS_names = /* Tracer short name */
(PID.TID 0000.0001)               'Chl16'
(PID.TID 0000.0001)     ;
(PID.TID 0000.0001) PTRACERS_long_names = /* Tracer long name */
(PID.TID 0000.0001)               ''
(PID.TID 0000.0001)     ;
(PID.TID 0000.0001) PTRACERS_ioLabel = /* tracer IO Label */
(PID.TID 0000.0001)               '0n'
(PID.TID 0000.0001)     ;
(PID.TID 0000.0001) PTRACERS_advScheme = /* Advection Scheme */
(PID.TID 0000.0001)                      33
(PID.TID 0000.0001)     ;
(PID.TID 0000.0001) PTRACERS_SOM_Advection = /* tracer uses SOM advection scheme */
(PID.TID 0000.0001)                   F
(PID.TID 0000.0001)     ;
(PID.TID 0000.0001) PTRACERS_ImplVertAdv = /* implicit vert. advection flag */
(PID.TID 0000.0001)                   F
(PID.TID 0000.0001)     ;
(PID.TID 0000.0001) PTRACERS_diffKh = /* Laplacian Diffusivity */
(PID.TID 0000.0001)                 0.000000000000000E+00
(PID.TID 0000.0001)     ;
(PID.TID 0000.0001) PTRACERS_diffK4 = /* Biharmonic Diffusivity */
(PID.TID 0000.0001)                 0.000000000000000E+00
(PID.TID 0000.0001)     ;
(PID.TID 0000.0001) PTRACERS_diffKrNr = /* Vertical Diffusivity */
(PID.TID 0000.0001)    35 @  1.000000000000000E-05              /* K =  1: 35 */
(PID.TID 0000.0001)     ;
(PID.TID 0000.0001) PTRACERS_useGMRedi = /* apply GM-Redi */
(PID.TID 0000.0001)                   F
(PID.TID 0000.0001)     ;
(PID.TID 0000.0001) PTRACERS_useDWNSLP = /* apply DOWN-SLOPE Flow */
(PID.TID 0000.0001)                   F
(PID.TID 0000.0001)     ;
(PID.TID 0000.0001) PTRACERS_useKPP = /* apply KPP scheme */
(PID.TID 0000.0001)                   F
(PID.TID 0000.0001)     ;
(PID.TID 0000.0001) PTRACERS_ref = /* Reference vertical profile */
(PID.TID 0000.0001)    35 @  0.000000000000000E+00              /* K =  1: 35 */
(PID.TID 0000.0001)     ;
(PID.TID 0000.0001) PTRACERS_EvPrRn =/* tracer conc. in Evap. & Rain */
(PID.TID 0000.0001)                 1.234567000000000E+05
(PID.TID 0000.0001)     ;
(PID.TID 0000.0001)  -----------------------------------
(PID.TID 0000.0001)  tracer number :  114
(PID.TID 0000.0001) PTRACERS_names = /* Tracer short name */
(PID.TID 0000.0001)               'Chl17'
(PID.TID 0000.0001)     ;
(PID.TID 0000.0001) PTRACERS_long_names = /* Tracer long name */
(PID.TID 0000.0001)               ''
(PID.TID 0000.0001)     ;
(PID.TID 0000.0001) PTRACERS_ioLabel = /* tracer IO Label */
(PID.TID 0000.0001)               '0o'
(PID.TID 0000.0001)     ;
(PID.TID 0000.0001) PTRACERS_advScheme = /* Advection Scheme */
(PID.TID 0000.0001)                      33
(PID.TID 0000.0001)     ;
(PID.TID 0000.0001) PTRACERS_SOM_Advection = /* tracer uses SOM advection scheme */
(PID.TID 0000.0001)                   F
(PID.TID 0000.0001)     ;
(PID.TID 0000.0001) PTRACERS_ImplVertAdv = /* implicit vert. advection flag */
(PID.TID 0000.0001)                   F
(PID.TID 0000.0001)     ;
(PID.TID 0000.0001) PTRACERS_diffKh = /* Laplacian Diffusivity */
(PID.TID 0000.0001)                 0.000000000000000E+00
(PID.TID 0000.0001)     ;
(PID.TID 0000.0001) PTRACERS_diffK4 = /* Biharmonic Diffusivity */
(PID.TID 0000.0001)                 0.000000000000000E+00
(PID.TID 0000.0001)     ;
(PID.TID 0000.0001) PTRACERS_diffKrNr = /* Vertical Diffusivity */
(PID.TID 0000.0001)    35 @  1.000000000000000E-05              /* K =  1: 35 */
(PID.TID 0000.0001)     ;
(PID.TID 0000.0001) PTRACERS_useGMRedi = /* apply GM-Redi */
(PID.TID 0000.0001)                   F
(PID.TID 0000.0001)     ;
(PID.TID 0000.0001) PTRACERS_useDWNSLP = /* apply DOWN-SLOPE Flow */
(PID.TID 0000.0001)                   F
(PID.TID 0000.0001)     ;
(PID.TID 0000.0001) PTRACERS_useKPP = /* apply KPP scheme */
(PID.TID 0000.0001)                   F
(PID.TID 0000.0001)     ;
(PID.TID 0000.0001) PTRACERS_ref = /* Reference vertical profile */
(PID.TID 0000.0001)    35 @  0.000000000000000E+00              /* K =  1: 35 */
(PID.TID 0000.0001)     ;
(PID.TID 0000.0001) PTRACERS_EvPrRn =/* tracer conc. in Evap. & Rain */
(PID.TID 0000.0001)                 1.234567000000000E+05
(PID.TID 0000.0001)     ;
(PID.TID 0000.0001)  -----------------------------------
(PID.TID 0000.0001)  tracer number :  115
(PID.TID 0000.0001) PTRACERS_names = /* Tracer short name */
(PID.TID 0000.0001)               'Chl18'
(PID.TID 0000.0001)     ;
(PID.TID 0000.0001) PTRACERS_long_names = /* Tracer long name */
(PID.TID 0000.0001)               ''
(PID.TID 0000.0001)     ;
(PID.TID 0000.0001) PTRACERS_ioLabel = /* tracer IO Label */
(PID.TID 0000.0001)               '0p'
(PID.TID 0000.0001)     ;
(PID.TID 0000.0001) PTRACERS_advScheme = /* Advection Scheme */
(PID.TID 0000.0001)                      33
(PID.TID 0000.0001)     ;
(PID.TID 0000.0001) PTRACERS_SOM_Advection = /* tracer uses SOM advection scheme */
(PID.TID 0000.0001)                   F
(PID.TID 0000.0001)     ;
(PID.TID 0000.0001) PTRACERS_ImplVertAdv = /* implicit vert. advection flag */
(PID.TID 0000.0001)                   F
(PID.TID 0000.0001)     ;
(PID.TID 0000.0001) PTRACERS_diffKh = /* Laplacian Diffusivity */
(PID.TID 0000.0001)                 0.000000000000000E+00
(PID.TID 0000.0001)     ;
(PID.TID 0000.0001) PTRACERS_diffK4 = /* Biharmonic Diffusivity */
(PID.TID 0000.0001)                 0.000000000000000E+00
(PID.TID 0000.0001)     ;
(PID.TID 0000.0001) PTRACERS_diffKrNr = /* Vertical Diffusivity */
(PID.TID 0000.0001)    35 @  1.000000000000000E-05              /* K =  1: 35 */
(PID.TID 0000.0001)     ;
(PID.TID 0000.0001) PTRACERS_useGMRedi = /* apply GM-Redi */
(PID.TID 0000.0001)                   F
(PID.TID 0000.0001)     ;
(PID.TID 0000.0001) PTRACERS_useDWNSLP = /* apply DOWN-SLOPE Flow */
(PID.TID 0000.0001)                   F
(PID.TID 0000.0001)     ;
(PID.TID 0000.0001) PTRACERS_useKPP = /* apply KPP scheme */
(PID.TID 0000.0001)                   F
(PID.TID 0000.0001)     ;
(PID.TID 0000.0001) PTRACERS_ref = /* Reference vertical profile */
(PID.TID 0000.0001)    35 @  0.000000000000000E+00              /* K =  1: 35 */
(PID.TID 0000.0001)     ;
(PID.TID 0000.0001) PTRACERS_EvPrRn =/* tracer conc. in Evap. & Rain */
(PID.TID 0000.0001)                 1.234567000000000E+05
(PID.TID 0000.0001)     ;
(PID.TID 0000.0001)  -----------------------------------
(PID.TID 0000.0001)  tracer number :  116
(PID.TID 0000.0001) PTRACERS_names = /* Tracer short name */
(PID.TID 0000.0001)               'Chl19'
(PID.TID 0000.0001)     ;
(PID.TID 0000.0001) PTRACERS_long_names = /* Tracer long name */
(PID.TID 0000.0001)               ''
(PID.TID 0000.0001)     ;
(PID.TID 0000.0001) PTRACERS_ioLabel = /* tracer IO Label */
(PID.TID 0000.0001)               '0q'
(PID.TID 0000.0001)     ;
(PID.TID 0000.0001) PTRACERS_advScheme = /* Advection Scheme */
(PID.TID 0000.0001)                      33
(PID.TID 0000.0001)     ;
(PID.TID 0000.0001) PTRACERS_SOM_Advection = /* tracer uses SOM advection scheme */
(PID.TID 0000.0001)                   F
(PID.TID 0000.0001)     ;
(PID.TID 0000.0001) PTRACERS_ImplVertAdv = /* implicit vert. advection flag */
(PID.TID 0000.0001)                   F
(PID.TID 0000.0001)     ;
(PID.TID 0000.0001) PTRACERS_diffKh = /* Laplacian Diffusivity */
(PID.TID 0000.0001)                 0.000000000000000E+00
(PID.TID 0000.0001)     ;
(PID.TID 0000.0001) PTRACERS_diffK4 = /* Biharmonic Diffusivity */
(PID.TID 0000.0001)                 0.000000000000000E+00
(PID.TID 0000.0001)     ;
(PID.TID 0000.0001) PTRACERS_diffKrNr = /* Vertical Diffusivity */
(PID.TID 0000.0001)    35 @  1.000000000000000E-05              /* K =  1: 35 */
(PID.TID 0000.0001)     ;
(PID.TID 0000.0001) PTRACERS_useGMRedi = /* apply GM-Redi */
(PID.TID 0000.0001)                   F
(PID.TID 0000.0001)     ;
(PID.TID 0000.0001) PTRACERS_useDWNSLP = /* apply DOWN-SLOPE Flow */
(PID.TID 0000.0001)                   F
(PID.TID 0000.0001)     ;
(PID.TID 0000.0001) PTRACERS_useKPP = /* apply KPP scheme */
(PID.TID 0000.0001)                   F
(PID.TID 0000.0001)     ;
(PID.TID 0000.0001) PTRACERS_ref = /* Reference vertical profile */
(PID.TID 0000.0001)    35 @  0.000000000000000E+00              /* K =  1: 35 */
(PID.TID 0000.0001)     ;
(PID.TID 0000.0001) PTRACERS_EvPrRn =/* tracer conc. in Evap. & Rain */
(PID.TID 0000.0001)                 1.234567000000000E+05
(PID.TID 0000.0001)     ;
(PID.TID 0000.0001)  -----------------------------------
(PID.TID 0000.0001)  tracer number :  117
(PID.TID 0000.0001) PTRACERS_names = /* Tracer short name */
(PID.TID 0000.0001)               'Chl20'
(PID.TID 0000.0001)     ;
(PID.TID 0000.0001) PTRACERS_long_names = /* Tracer long name */
(PID.TID 0000.0001)               ''
(PID.TID 0000.0001)     ;
(PID.TID 0000.0001) PTRACERS_ioLabel = /* tracer IO Label */
(PID.TID 0000.0001)               '0r'
(PID.TID 0000.0001)     ;
(PID.TID 0000.0001) PTRACERS_advScheme = /* Advection Scheme */
(PID.TID 0000.0001)                      33
(PID.TID 0000.0001)     ;
(PID.TID 0000.0001) PTRACERS_SOM_Advection = /* tracer uses SOM advection scheme */
(PID.TID 0000.0001)                   F
(PID.TID 0000.0001)     ;
(PID.TID 0000.0001) PTRACERS_ImplVertAdv = /* implicit vert. advection flag */
(PID.TID 0000.0001)                   F
(PID.TID 0000.0001)     ;
(PID.TID 0000.0001) PTRACERS_diffKh = /* Laplacian Diffusivity */
(PID.TID 0000.0001)                 0.000000000000000E+00
(PID.TID 0000.0001)     ;
(PID.TID 0000.0001) PTRACERS_diffK4 = /* Biharmonic Diffusivity */
(PID.TID 0000.0001)                 0.000000000000000E+00
(PID.TID 0000.0001)     ;
(PID.TID 0000.0001) PTRACERS_diffKrNr = /* Vertical Diffusivity */
(PID.TID 0000.0001)    35 @  1.000000000000000E-05              /* K =  1: 35 */
(PID.TID 0000.0001)     ;
(PID.TID 0000.0001) PTRACERS_useGMRedi = /* apply GM-Redi */
(PID.TID 0000.0001)                   F
(PID.TID 0000.0001)     ;
(PID.TID 0000.0001) PTRACERS_useDWNSLP = /* apply DOWN-SLOPE Flow */
(PID.TID 0000.0001)                   F
(PID.TID 0000.0001)     ;
(PID.TID 0000.0001) PTRACERS_useKPP = /* apply KPP scheme */
(PID.TID 0000.0001)                   F
(PID.TID 0000.0001)     ;
(PID.TID 0000.0001) PTRACERS_ref = /* Reference vertical profile */
(PID.TID 0000.0001)    35 @  0.000000000000000E+00              /* K =  1: 35 */
(PID.TID 0000.0001)     ;
(PID.TID 0000.0001) PTRACERS_EvPrRn =/* tracer conc. in Evap. & Rain */
(PID.TID 0000.0001)                 1.234567000000000E+05
(PID.TID 0000.0001)     ;
(PID.TID 0000.0001)  -----------------------------------
(PID.TID 0000.0001)  tracer number :  118
(PID.TID 0000.0001) PTRACERS_names = /* Tracer short name */
(PID.TID 0000.0001)               'Chl21'
(PID.TID 0000.0001)     ;
(PID.TID 0000.0001) PTRACERS_long_names = /* Tracer long name */
(PID.TID 0000.0001)               ''
(PID.TID 0000.0001)     ;
(PID.TID 0000.0001) PTRACERS_ioLabel = /* tracer IO Label */
(PID.TID 0000.0001)               '0s'
(PID.TID 0000.0001)     ;
(PID.TID 0000.0001) PTRACERS_advScheme = /* Advection Scheme */
(PID.TID 0000.0001)                      33
(PID.TID 0000.0001)     ;
(PID.TID 0000.0001) PTRACERS_SOM_Advection = /* tracer uses SOM advection scheme */
(PID.TID 0000.0001)                   F
(PID.TID 0000.0001)     ;
(PID.TID 0000.0001) PTRACERS_ImplVertAdv = /* implicit vert. advection flag */
(PID.TID 0000.0001)                   F
(PID.TID 0000.0001)     ;
(PID.TID 0000.0001) PTRACERS_diffKh = /* Laplacian Diffusivity */
(PID.TID 0000.0001)                 0.000000000000000E+00
(PID.TID 0000.0001)     ;
(PID.TID 0000.0001) PTRACERS_diffK4 = /* Biharmonic Diffusivity */
(PID.TID 0000.0001)                 0.000000000000000E+00
(PID.TID 0000.0001)     ;
(PID.TID 0000.0001) PTRACERS_diffKrNr = /* Vertical Diffusivity */
(PID.TID 0000.0001)    35 @  1.000000000000000E-05              /* K =  1: 35 */
(PID.TID 0000.0001)     ;
(PID.TID 0000.0001) PTRACERS_useGMRedi = /* apply GM-Redi */
(PID.TID 0000.0001)                   F
(PID.TID 0000.0001)     ;
(PID.TID 0000.0001) PTRACERS_useDWNSLP = /* apply DOWN-SLOPE Flow */
(PID.TID 0000.0001)                   F
(PID.TID 0000.0001)     ;
(PID.TID 0000.0001) PTRACERS_useKPP = /* apply KPP scheme */
(PID.TID 0000.0001)                   F
(PID.TID 0000.0001)     ;
(PID.TID 0000.0001) PTRACERS_ref = /* Reference vertical profile */
(PID.TID 0000.0001)    35 @  0.000000000000000E+00              /* K =  1: 35 */
(PID.TID 0000.0001)     ;
(PID.TID 0000.0001) PTRACERS_EvPrRn =/* tracer conc. in Evap. & Rain */
(PID.TID 0000.0001)                 1.234567000000000E+05
(PID.TID 0000.0001)     ;
(PID.TID 0000.0001)  -----------------------------------
(PID.TID 0000.0001)  tracer number :  119
(PID.TID 0000.0001) PTRACERS_names = /* Tracer short name */
(PID.TID 0000.0001)               'Chl22'
(PID.TID 0000.0001)     ;
(PID.TID 0000.0001) PTRACERS_long_names = /* Tracer long name */
(PID.TID 0000.0001)               ''
(PID.TID 0000.0001)     ;
(PID.TID 0000.0001) PTRACERS_ioLabel = /* tracer IO Label */
(PID.TID 0000.0001)               '0t'
(PID.TID 0000.0001)     ;
(PID.TID 0000.0001) PTRACERS_advScheme = /* Advection Scheme */
(PID.TID 0000.0001)                      33
(PID.TID 0000.0001)     ;
(PID.TID 0000.0001) PTRACERS_SOM_Advection = /* tracer uses SOM advection scheme */
(PID.TID 0000.0001)                   F
(PID.TID 0000.0001)     ;
(PID.TID 0000.0001) PTRACERS_ImplVertAdv = /* implicit vert. advection flag */
(PID.TID 0000.0001)                   F
(PID.TID 0000.0001)     ;
(PID.TID 0000.0001) PTRACERS_diffKh = /* Laplacian Diffusivity */
(PID.TID 0000.0001)                 0.000000000000000E+00
(PID.TID 0000.0001)     ;
(PID.TID 0000.0001) PTRACERS_diffK4 = /* Biharmonic Diffusivity */
(PID.TID 0000.0001)                 0.000000000000000E+00
(PID.TID 0000.0001)     ;
(PID.TID 0000.0001) PTRACERS_diffKrNr = /* Vertical Diffusivity */
(PID.TID 0000.0001)    35 @  1.000000000000000E-05              /* K =  1: 35 */
(PID.TID 0000.0001)     ;
(PID.TID 0000.0001) PTRACERS_useGMRedi = /* apply GM-Redi */
(PID.TID 0000.0001)                   F
(PID.TID 0000.0001)     ;
(PID.TID 0000.0001) PTRACERS_useDWNSLP = /* apply DOWN-SLOPE Flow */
(PID.TID 0000.0001)                   F
(PID.TID 0000.0001)     ;
(PID.TID 0000.0001) PTRACERS_useKPP = /* apply KPP scheme */
(PID.TID 0000.0001)                   F
(PID.TID 0000.0001)     ;
(PID.TID 0000.0001) PTRACERS_ref = /* Reference vertical profile */
(PID.TID 0000.0001)    35 @  0.000000000000000E+00              /* K =  1: 35 */
(PID.TID 0000.0001)     ;
(PID.TID 0000.0001) PTRACERS_EvPrRn =/* tracer conc. in Evap. & Rain */
(PID.TID 0000.0001)                 1.234567000000000E+05
(PID.TID 0000.0001)     ;
(PID.TID 0000.0001)  -----------------------------------
(PID.TID 0000.0001)  tracer number :  120
(PID.TID 0000.0001) PTRACERS_names = /* Tracer short name */
(PID.TID 0000.0001)               'Chl23'
(PID.TID 0000.0001)     ;
(PID.TID 0000.0001) PTRACERS_long_names = /* Tracer long name */
(PID.TID 0000.0001)               ''
(PID.TID 0000.0001)     ;
(PID.TID 0000.0001) PTRACERS_ioLabel = /* tracer IO Label */
(PID.TID 0000.0001)               '0u'
(PID.TID 0000.0001)     ;
(PID.TID 0000.0001) PTRACERS_advScheme = /* Advection Scheme */
(PID.TID 0000.0001)                      33
(PID.TID 0000.0001)     ;
(PID.TID 0000.0001) PTRACERS_SOM_Advection = /* tracer uses SOM advection scheme */
(PID.TID 0000.0001)                   F
(PID.TID 0000.0001)     ;
(PID.TID 0000.0001) PTRACERS_ImplVertAdv = /* implicit vert. advection flag */
(PID.TID 0000.0001)                   F
(PID.TID 0000.0001)     ;
(PID.TID 0000.0001) PTRACERS_diffKh = /* Laplacian Diffusivity */
(PID.TID 0000.0001)                 0.000000000000000E+00
(PID.TID 0000.0001)     ;
(PID.TID 0000.0001) PTRACERS_diffK4 = /* Biharmonic Diffusivity */
(PID.TID 0000.0001)                 0.000000000000000E+00
(PID.TID 0000.0001)     ;
(PID.TID 0000.0001) PTRACERS_diffKrNr = /* Vertical Diffusivity */
(PID.TID 0000.0001)    35 @  1.000000000000000E-05              /* K =  1: 35 */
(PID.TID 0000.0001)     ;
(PID.TID 0000.0001) PTRACERS_useGMRedi = /* apply GM-Redi */
(PID.TID 0000.0001)                   F
(PID.TID 0000.0001)     ;
(PID.TID 0000.0001) PTRACERS_useDWNSLP = /* apply DOWN-SLOPE Flow */
(PID.TID 0000.0001)                   F
(PID.TID 0000.0001)     ;
(PID.TID 0000.0001) PTRACERS_useKPP = /* apply KPP scheme */
(PID.TID 0000.0001)                   F
(PID.TID 0000.0001)     ;
(PID.TID 0000.0001) PTRACERS_ref = /* Reference vertical profile */
(PID.TID 0000.0001)    35 @  0.000000000000000E+00              /* K =  1: 35 */
(PID.TID 0000.0001)     ;
(PID.TID 0000.0001) PTRACERS_EvPrRn =/* tracer conc. in Evap. & Rain */
(PID.TID 0000.0001)                 1.234567000000000E+05
(PID.TID 0000.0001)     ;
(PID.TID 0000.0001)  -----------------------------------
(PID.TID 0000.0001)  tracer number :  121
(PID.TID 0000.0001) PTRACERS_names = /* Tracer short name */
(PID.TID 0000.0001)               'Chl24'
(PID.TID 0000.0001)     ;
(PID.TID 0000.0001) PTRACERS_long_names = /* Tracer long name */
(PID.TID 0000.0001)               ''
(PID.TID 0000.0001)     ;
(PID.TID 0000.0001) PTRACERS_ioLabel = /* tracer IO Label */
(PID.TID 0000.0001)               '0v'
(PID.TID 0000.0001)     ;
(PID.TID 0000.0001) PTRACERS_advScheme = /* Advection Scheme */
(PID.TID 0000.0001)                      33
(PID.TID 0000.0001)     ;
(PID.TID 0000.0001) PTRACERS_SOM_Advection = /* tracer uses SOM advection scheme */
(PID.TID 0000.0001)                   F
(PID.TID 0000.0001)     ;
(PID.TID 0000.0001) PTRACERS_ImplVertAdv = /* implicit vert. advection flag */
(PID.TID 0000.0001)                   F
(PID.TID 0000.0001)     ;
(PID.TID 0000.0001) PTRACERS_diffKh = /* Laplacian Diffusivity */
(PID.TID 0000.0001)                 0.000000000000000E+00
(PID.TID 0000.0001)     ;
(PID.TID 0000.0001) PTRACERS_diffK4 = /* Biharmonic Diffusivity */
(PID.TID 0000.0001)                 0.000000000000000E+00
(PID.TID 0000.0001)     ;
(PID.TID 0000.0001) PTRACERS_diffKrNr = /* Vertical Diffusivity */
(PID.TID 0000.0001)    35 @  1.000000000000000E-05              /* K =  1: 35 */
(PID.TID 0000.0001)     ;
(PID.TID 0000.0001) PTRACERS_useGMRedi = /* apply GM-Redi */
(PID.TID 0000.0001)                   F
(PID.TID 0000.0001)     ;
(PID.TID 0000.0001) PTRACERS_useDWNSLP = /* apply DOWN-SLOPE Flow */
(PID.TID 0000.0001)                   F
(PID.TID 0000.0001)     ;
(PID.TID 0000.0001) PTRACERS_useKPP = /* apply KPP scheme */
(PID.TID 0000.0001)                   F
(PID.TID 0000.0001)     ;
(PID.TID 0000.0001) PTRACERS_ref = /* Reference vertical profile */
(PID.TID 0000.0001)    35 @  0.000000000000000E+00              /* K =  1: 35 */
(PID.TID 0000.0001)     ;
(PID.TID 0000.0001) PTRACERS_EvPrRn =/* tracer conc. in Evap. & Rain */
(PID.TID 0000.0001)                 1.234567000000000E+05
(PID.TID 0000.0001)     ;
(PID.TID 0000.0001)  -----------------------------------
(PID.TID 0000.0001)  tracer number :  122
(PID.TID 0000.0001) PTRACERS_names = /* Tracer short name */
(PID.TID 0000.0001)               'Chl25'
(PID.TID 0000.0001)     ;
(PID.TID 0000.0001) PTRACERS_long_names = /* Tracer long name */
(PID.TID 0000.0001)               ''
(PID.TID 0000.0001)     ;
(PID.TID 0000.0001) PTRACERS_ioLabel = /* tracer IO Label */
(PID.TID 0000.0001)               '0w'
(PID.TID 0000.0001)     ;
(PID.TID 0000.0001) PTRACERS_advScheme = /* Advection Scheme */
(PID.TID 0000.0001)                      33
(PID.TID 0000.0001)     ;
(PID.TID 0000.0001) PTRACERS_SOM_Advection = /* tracer uses SOM advection scheme */
(PID.TID 0000.0001)                   F
(PID.TID 0000.0001)     ;
(PID.TID 0000.0001) PTRACERS_ImplVertAdv = /* implicit vert. advection flag */
(PID.TID 0000.0001)                   F
(PID.TID 0000.0001)     ;
(PID.TID 0000.0001) PTRACERS_diffKh = /* Laplacian Diffusivity */
(PID.TID 0000.0001)                 0.000000000000000E+00
(PID.TID 0000.0001)     ;
(PID.TID 0000.0001) PTRACERS_diffK4 = /* Biharmonic Diffusivity */
(PID.TID 0000.0001)                 0.000000000000000E+00
(PID.TID 0000.0001)     ;
(PID.TID 0000.0001) PTRACERS_diffKrNr = /* Vertical Diffusivity */
(PID.TID 0000.0001)    35 @  1.000000000000000E-05              /* K =  1: 35 */
(PID.TID 0000.0001)     ;
(PID.TID 0000.0001) PTRACERS_useGMRedi = /* apply GM-Redi */
(PID.TID 0000.0001)                   F
(PID.TID 0000.0001)     ;
(PID.TID 0000.0001) PTRACERS_useDWNSLP = /* apply DOWN-SLOPE Flow */
(PID.TID 0000.0001)                   F
(PID.TID 0000.0001)     ;
(PID.TID 0000.0001) PTRACERS_useKPP = /* apply KPP scheme */
(PID.TID 0000.0001)                   F
(PID.TID 0000.0001)     ;
(PID.TID 0000.0001) PTRACERS_ref = /* Reference vertical profile */
(PID.TID 0000.0001)    35 @  0.000000000000000E+00              /* K =  1: 35 */
(PID.TID 0000.0001)     ;
(PID.TID 0000.0001) PTRACERS_EvPrRn =/* tracer conc. in Evap. & Rain */
(PID.TID 0000.0001)                 1.234567000000000E+05
(PID.TID 0000.0001)     ;
(PID.TID 0000.0001)  -----------------------------------
(PID.TID 0000.0001)  tracer number :  123
(PID.TID 0000.0001) PTRACERS_names = /* Tracer short name */
(PID.TID 0000.0001)               'Chl26'
(PID.TID 0000.0001)     ;
(PID.TID 0000.0001) PTRACERS_long_names = /* Tracer long name */
(PID.TID 0000.0001)               ''
(PID.TID 0000.0001)     ;
(PID.TID 0000.0001) PTRACERS_ioLabel = /* tracer IO Label */
(PID.TID 0000.0001)               '0x'
(PID.TID 0000.0001)     ;
(PID.TID 0000.0001) PTRACERS_advScheme = /* Advection Scheme */
(PID.TID 0000.0001)                      33
(PID.TID 0000.0001)     ;
(PID.TID 0000.0001) PTRACERS_SOM_Advection = /* tracer uses SOM advection scheme */
(PID.TID 0000.0001)                   F
(PID.TID 0000.0001)     ;
(PID.TID 0000.0001) PTRACERS_ImplVertAdv = /* implicit vert. advection flag */
(PID.TID 0000.0001)                   F
(PID.TID 0000.0001)     ;
(PID.TID 0000.0001) PTRACERS_diffKh = /* Laplacian Diffusivity */
(PID.TID 0000.0001)                 0.000000000000000E+00
(PID.TID 0000.0001)     ;
(PID.TID 0000.0001) PTRACERS_diffK4 = /* Biharmonic Diffusivity */
(PID.TID 0000.0001)                 0.000000000000000E+00
(PID.TID 0000.0001)     ;
(PID.TID 0000.0001) PTRACERS_diffKrNr = /* Vertical Diffusivity */
(PID.TID 0000.0001)    35 @  1.000000000000000E-05              /* K =  1: 35 */
(PID.TID 0000.0001)     ;
(PID.TID 0000.0001) PTRACERS_useGMRedi = /* apply GM-Redi */
(PID.TID 0000.0001)                   F
(PID.TID 0000.0001)     ;
(PID.TID 0000.0001) PTRACERS_useDWNSLP = /* apply DOWN-SLOPE Flow */
(PID.TID 0000.0001)                   F
(PID.TID 0000.0001)     ;
(PID.TID 0000.0001) PTRACERS_useKPP = /* apply KPP scheme */
(PID.TID 0000.0001)                   F
(PID.TID 0000.0001)     ;
(PID.TID 0000.0001) PTRACERS_ref = /* Reference vertical profile */
(PID.TID 0000.0001)    35 @  0.000000000000000E+00              /* K =  1: 35 */
(PID.TID 0000.0001)     ;
(PID.TID 0000.0001) PTRACERS_EvPrRn =/* tracer conc. in Evap. & Rain */
(PID.TID 0000.0001)                 1.234567000000000E+05
(PID.TID 0000.0001)     ;
(PID.TID 0000.0001)  -----------------------------------
(PID.TID 0000.0001)  tracer number :  124
(PID.TID 0000.0001) PTRACERS_names = /* Tracer short name */
(PID.TID 0000.0001)               'Chl27'
(PID.TID 0000.0001)     ;
(PID.TID 0000.0001) PTRACERS_long_names = /* Tracer long name */
(PID.TID 0000.0001)               ''
(PID.TID 0000.0001)     ;
(PID.TID 0000.0001) PTRACERS_ioLabel = /* tracer IO Label */
(PID.TID 0000.0001)               '0y'
(PID.TID 0000.0001)     ;
(PID.TID 0000.0001) PTRACERS_advScheme = /* Advection Scheme */
(PID.TID 0000.0001)                      33
(PID.TID 0000.0001)     ;
(PID.TID 0000.0001) PTRACERS_SOM_Advection = /* tracer uses SOM advection scheme */
(PID.TID 0000.0001)                   F
(PID.TID 0000.0001)     ;
(PID.TID 0000.0001) PTRACERS_ImplVertAdv = /* implicit vert. advection flag */
(PID.TID 0000.0001)                   F
(PID.TID 0000.0001)     ;
(PID.TID 0000.0001) PTRACERS_diffKh = /* Laplacian Diffusivity */
(PID.TID 0000.0001)                 0.000000000000000E+00
(PID.TID 0000.0001)     ;
(PID.TID 0000.0001) PTRACERS_diffK4 = /* Biharmonic Diffusivity */
(PID.TID 0000.0001)                 0.000000000000000E+00
(PID.TID 0000.0001)     ;
(PID.TID 0000.0001) PTRACERS_diffKrNr = /* Vertical Diffusivity */
(PID.TID 0000.0001)    35 @  1.000000000000000E-05              /* K =  1: 35 */
(PID.TID 0000.0001)     ;
(PID.TID 0000.0001) PTRACERS_useGMRedi = /* apply GM-Redi */
(PID.TID 0000.0001)                   F
(PID.TID 0000.0001)     ;
(PID.TID 0000.0001) PTRACERS_useDWNSLP = /* apply DOWN-SLOPE Flow */
(PID.TID 0000.0001)                   F
(PID.TID 0000.0001)     ;
(PID.TID 0000.0001) PTRACERS_useKPP = /* apply KPP scheme */
(PID.TID 0000.0001)                   F
(PID.TID 0000.0001)     ;
(PID.TID 0000.0001) PTRACERS_ref = /* Reference vertical profile */
(PID.TID 0000.0001)    35 @  0.000000000000000E+00              /* K =  1: 35 */
(PID.TID 0000.0001)     ;
(PID.TID 0000.0001) PTRACERS_EvPrRn =/* tracer conc. in Evap. & Rain */
(PID.TID 0000.0001)                 1.234567000000000E+05
(PID.TID 0000.0001)     ;
(PID.TID 0000.0001)  -----------------------------------
(PID.TID 0000.0001)  tracer number :  125
(PID.TID 0000.0001) PTRACERS_names = /* Tracer short name */
(PID.TID 0000.0001)               'Chl28'
(PID.TID 0000.0001)     ;
(PID.TID 0000.0001) PTRACERS_long_names = /* Tracer long name */
(PID.TID 0000.0001)               ''
(PID.TID 0000.0001)     ;
(PID.TID 0000.0001) PTRACERS_ioLabel = /* tracer IO Label */
(PID.TID 0000.0001)               '0z'
(PID.TID 0000.0001)     ;
(PID.TID 0000.0001) PTRACERS_advScheme = /* Advection Scheme */
(PID.TID 0000.0001)                      33
(PID.TID 0000.0001)     ;
(PID.TID 0000.0001) PTRACERS_SOM_Advection = /* tracer uses SOM advection scheme */
(PID.TID 0000.0001)                   F
(PID.TID 0000.0001)     ;
(PID.TID 0000.0001) PTRACERS_ImplVertAdv = /* implicit vert. advection flag */
(PID.TID 0000.0001)                   F
(PID.TID 0000.0001)     ;
(PID.TID 0000.0001) PTRACERS_diffKh = /* Laplacian Diffusivity */
(PID.TID 0000.0001)                 0.000000000000000E+00
(PID.TID 0000.0001)     ;
(PID.TID 0000.0001) PTRACERS_diffK4 = /* Biharmonic Diffusivity */
(PID.TID 0000.0001)                 0.000000000000000E+00
(PID.TID 0000.0001)     ;
(PID.TID 0000.0001) PTRACERS_diffKrNr = /* Vertical Diffusivity */
(PID.TID 0000.0001)    35 @  1.000000000000000E-05              /* K =  1: 35 */
(PID.TID 0000.0001)     ;
(PID.TID 0000.0001) PTRACERS_useGMRedi = /* apply GM-Redi */
(PID.TID 0000.0001)                   F
(PID.TID 0000.0001)     ;
(PID.TID 0000.0001) PTRACERS_useDWNSLP = /* apply DOWN-SLOPE Flow */
(PID.TID 0000.0001)                   F
(PID.TID 0000.0001)     ;
(PID.TID 0000.0001) PTRACERS_useKPP = /* apply KPP scheme */
(PID.TID 0000.0001)                   F
(PID.TID 0000.0001)     ;
(PID.TID 0000.0001) PTRACERS_ref = /* Reference vertical profile */
(PID.TID 0000.0001)    35 @  0.000000000000000E+00              /* K =  1: 35 */
(PID.TID 0000.0001)     ;
(PID.TID 0000.0001) PTRACERS_EvPrRn =/* tracer conc. in Evap. & Rain */
(PID.TID 0000.0001)                 1.234567000000000E+05
(PID.TID 0000.0001)     ;
(PID.TID 0000.0001)  -----------------------------------
(PID.TID 0000.0001)  tracer number :  126
(PID.TID 0000.0001) PTRACERS_names = /* Tracer short name */
(PID.TID 0000.0001)               'Chl29'
(PID.TID 0000.0001)     ;
(PID.TID 0000.0001) PTRACERS_long_names = /* Tracer long name */
(PID.TID 0000.0001)               ''
(PID.TID 0000.0001)     ;
(PID.TID 0000.0001) PTRACERS_ioLabel = /* tracer IO Label */
(PID.TID 0000.0001)               '0A'
(PID.TID 0000.0001)     ;
(PID.TID 0000.0001) PTRACERS_advScheme = /* Advection Scheme */
(PID.TID 0000.0001)                      33
(PID.TID 0000.0001)     ;
(PID.TID 0000.0001) PTRACERS_SOM_Advection = /* tracer uses SOM advection scheme */
(PID.TID 0000.0001)                   F
(PID.TID 0000.0001)     ;
(PID.TID 0000.0001) PTRACERS_ImplVertAdv = /* implicit vert. advection flag */
(PID.TID 0000.0001)                   F
(PID.TID 0000.0001)     ;
(PID.TID 0000.0001) PTRACERS_diffKh = /* Laplacian Diffusivity */
(PID.TID 0000.0001)                 0.000000000000000E+00
(PID.TID 0000.0001)     ;
(PID.TID 0000.0001) PTRACERS_diffK4 = /* Biharmonic Diffusivity */
(PID.TID 0000.0001)                 0.000000000000000E+00
(PID.TID 0000.0001)     ;
(PID.TID 0000.0001) PTRACERS_diffKrNr = /* Vertical Diffusivity */
(PID.TID 0000.0001)    35 @  1.000000000000000E-05              /* K =  1: 35 */
(PID.TID 0000.0001)     ;
(PID.TID 0000.0001) PTRACERS_useGMRedi = /* apply GM-Redi */
(PID.TID 0000.0001)                   F
(PID.TID 0000.0001)     ;
(PID.TID 0000.0001) PTRACERS_useDWNSLP = /* apply DOWN-SLOPE Flow */
(PID.TID 0000.0001)                   F
(PID.TID 0000.0001)     ;
(PID.TID 0000.0001) PTRACERS_useKPP = /* apply KPP scheme */
(PID.TID 0000.0001)                   F
(PID.TID 0000.0001)     ;
(PID.TID 0000.0001) PTRACERS_ref = /* Reference vertical profile */
(PID.TID 0000.0001)    35 @  0.000000000000000E+00              /* K =  1: 35 */
(PID.TID 0000.0001)     ;
(PID.TID 0000.0001) PTRACERS_EvPrRn =/* tracer conc. in Evap. & Rain */
(PID.TID 0000.0001)                 1.234567000000000E+05
(PID.TID 0000.0001)     ;
(PID.TID 0000.0001)  -----------------------------------
(PID.TID 0000.0001)  tracer number :  127
(PID.TID 0000.0001) PTRACERS_names = /* Tracer short name */
(PID.TID 0000.0001)               'Chl30'
(PID.TID 0000.0001)     ;
(PID.TID 0000.0001) PTRACERS_long_names = /* Tracer long name */
(PID.TID 0000.0001)               ''
(PID.TID 0000.0001)     ;
(PID.TID 0000.0001) PTRACERS_ioLabel = /* tracer IO Label */
(PID.TID 0000.0001)               '0B'
(PID.TID 0000.0001)     ;
(PID.TID 0000.0001) PTRACERS_advScheme = /* Advection Scheme */
(PID.TID 0000.0001)                      33
(PID.TID 0000.0001)     ;
(PID.TID 0000.0001) PTRACERS_SOM_Advection = /* tracer uses SOM advection scheme */
(PID.TID 0000.0001)                   F
(PID.TID 0000.0001)     ;
(PID.TID 0000.0001) PTRACERS_ImplVertAdv = /* implicit vert. advection flag */
(PID.TID 0000.0001)                   F
(PID.TID 0000.0001)     ;
(PID.TID 0000.0001) PTRACERS_diffKh = /* Laplacian Diffusivity */
(PID.TID 0000.0001)                 0.000000000000000E+00
(PID.TID 0000.0001)     ;
(PID.TID 0000.0001) PTRACERS_diffK4 = /* Biharmonic Diffusivity */
(PID.TID 0000.0001)                 0.000000000000000E+00
(PID.TID 0000.0001)     ;
(PID.TID 0000.0001) PTRACERS_diffKrNr = /* Vertical Diffusivity */
(PID.TID 0000.0001)    35 @  1.000000000000000E-05              /* K =  1: 35 */
(PID.TID 0000.0001)     ;
(PID.TID 0000.0001) PTRACERS_useGMRedi = /* apply GM-Redi */
(PID.TID 0000.0001)                   F
(PID.TID 0000.0001)     ;
(PID.TID 0000.0001) PTRACERS_useDWNSLP = /* apply DOWN-SLOPE Flow */
(PID.TID 0000.0001)                   F
(PID.TID 0000.0001)     ;
(PID.TID 0000.0001) PTRACERS_useKPP = /* apply KPP scheme */
(PID.TID 0000.0001)                   F
(PID.TID 0000.0001)     ;
(PID.TID 0000.0001) PTRACERS_ref = /* Reference vertical profile */
(PID.TID 0000.0001)    35 @  0.000000000000000E+00              /* K =  1: 35 */
(PID.TID 0000.0001)     ;
(PID.TID 0000.0001) PTRACERS_EvPrRn =/* tracer conc. in Evap. & Rain */
(PID.TID 0000.0001)                 1.234567000000000E+05
(PID.TID 0000.0001)     ;
(PID.TID 0000.0001)  -----------------------------------
(PID.TID 0000.0001)  tracer number :  128
(PID.TID 0000.0001) PTRACERS_names = /* Tracer short name */
(PID.TID 0000.0001)               'Chl31'
(PID.TID 0000.0001)     ;
(PID.TID 0000.0001) PTRACERS_long_names = /* Tracer long name */
(PID.TID 0000.0001)               ''
(PID.TID 0000.0001)     ;
(PID.TID 0000.0001) PTRACERS_ioLabel = /* tracer IO Label */
(PID.TID 0000.0001)               '0C'
(PID.TID 0000.0001)     ;
(PID.TID 0000.0001) PTRACERS_advScheme = /* Advection Scheme */
(PID.TID 0000.0001)                      33
(PID.TID 0000.0001)     ;
(PID.TID 0000.0001) PTRACERS_SOM_Advection = /* tracer uses SOM advection scheme */
(PID.TID 0000.0001)                   F
(PID.TID 0000.0001)     ;
(PID.TID 0000.0001) PTRACERS_ImplVertAdv = /* implicit vert. advection flag */
(PID.TID 0000.0001)                   F
(PID.TID 0000.0001)     ;
(PID.TID 0000.0001) PTRACERS_diffKh = /* Laplacian Diffusivity */
(PID.TID 0000.0001)                 0.000000000000000E+00
(PID.TID 0000.0001)     ;
(PID.TID 0000.0001) PTRACERS_diffK4 = /* Biharmonic Diffusivity */
(PID.TID 0000.0001)                 0.000000000000000E+00
(PID.TID 0000.0001)     ;
(PID.TID 0000.0001) PTRACERS_diffKrNr = /* Vertical Diffusivity */
(PID.TID 0000.0001)    35 @  1.000000000000000E-05              /* K =  1: 35 */
(PID.TID 0000.0001)     ;
(PID.TID 0000.0001) PTRACERS_useGMRedi = /* apply GM-Redi */
(PID.TID 0000.0001)                   F
(PID.TID 0000.0001)     ;
(PID.TID 0000.0001) PTRACERS_useDWNSLP = /* apply DOWN-SLOPE Flow */
(PID.TID 0000.0001)                   F
(PID.TID 0000.0001)     ;
(PID.TID 0000.0001) PTRACERS_useKPP = /* apply KPP scheme */
(PID.TID 0000.0001)                   F
(PID.TID 0000.0001)     ;
(PID.TID 0000.0001) PTRACERS_ref = /* Reference vertical profile */
(PID.TID 0000.0001)    35 @  0.000000000000000E+00              /* K =  1: 35 */
(PID.TID 0000.0001)     ;
(PID.TID 0000.0001) PTRACERS_EvPrRn =/* tracer conc. in Evap. & Rain */
(PID.TID 0000.0001)                 1.234567000000000E+05
(PID.TID 0000.0001)     ;
(PID.TID 0000.0001)  -----------------------------------
(PID.TID 0000.0001)  tracer number :  129
(PID.TID 0000.0001) PTRACERS_names = /* Tracer short name */
(PID.TID 0000.0001)               'Chl32'
(PID.TID 0000.0001)     ;
(PID.TID 0000.0001) PTRACERS_long_names = /* Tracer long name */
(PID.TID 0000.0001)               ''
(PID.TID 0000.0001)     ;
(PID.TID 0000.0001) PTRACERS_ioLabel = /* tracer IO Label */
(PID.TID 0000.0001)               '0D'
(PID.TID 0000.0001)     ;
(PID.TID 0000.0001) PTRACERS_advScheme = /* Advection Scheme */
(PID.TID 0000.0001)                      33
(PID.TID 0000.0001)     ;
(PID.TID 0000.0001) PTRACERS_SOM_Advection = /* tracer uses SOM advection scheme */
(PID.TID 0000.0001)                   F
(PID.TID 0000.0001)     ;
(PID.TID 0000.0001) PTRACERS_ImplVertAdv = /* implicit vert. advection flag */
(PID.TID 0000.0001)                   F
(PID.TID 0000.0001)     ;
(PID.TID 0000.0001) PTRACERS_diffKh = /* Laplacian Diffusivity */
(PID.TID 0000.0001)                 0.000000000000000E+00
(PID.TID 0000.0001)     ;
(PID.TID 0000.0001) PTRACERS_diffK4 = /* Biharmonic Diffusivity */
(PID.TID 0000.0001)                 0.000000000000000E+00
(PID.TID 0000.0001)     ;
(PID.TID 0000.0001) PTRACERS_diffKrNr = /* Vertical Diffusivity */
(PID.TID 0000.0001)    35 @  1.000000000000000E-05              /* K =  1: 35 */
(PID.TID 0000.0001)     ;
(PID.TID 0000.0001) PTRACERS_useGMRedi = /* apply GM-Redi */
(PID.TID 0000.0001)                   F
(PID.TID 0000.0001)     ;
(PID.TID 0000.0001) PTRACERS_useDWNSLP = /* apply DOWN-SLOPE Flow */
(PID.TID 0000.0001)                   F
(PID.TID 0000.0001)     ;
(PID.TID 0000.0001) PTRACERS_useKPP = /* apply KPP scheme */
(PID.TID 0000.0001)                   F
(PID.TID 0000.0001)     ;
(PID.TID 0000.0001) PTRACERS_ref = /* Reference vertical profile */
(PID.TID 0000.0001)    35 @  0.000000000000000E+00              /* K =  1: 35 */
(PID.TID 0000.0001)     ;
(PID.TID 0000.0001) PTRACERS_EvPrRn =/* tracer conc. in Evap. & Rain */
(PID.TID 0000.0001)                 1.234567000000000E+05
(PID.TID 0000.0001)     ;
(PID.TID 0000.0001)  -----------------------------------
(PID.TID 0000.0001)  tracer number :  130
(PID.TID 0000.0001) PTRACERS_names = /* Tracer short name */
(PID.TID 0000.0001)               'Chl33'
(PID.TID 0000.0001)     ;
(PID.TID 0000.0001) PTRACERS_long_names = /* Tracer long name */
(PID.TID 0000.0001)               ''
(PID.TID 0000.0001)     ;
(PID.TID 0000.0001) PTRACERS_ioLabel = /* tracer IO Label */
(PID.TID 0000.0001)               '0E'
(PID.TID 0000.0001)     ;
(PID.TID 0000.0001) PTRACERS_advScheme = /* Advection Scheme */
(PID.TID 0000.0001)                      33
(PID.TID 0000.0001)     ;
(PID.TID 0000.0001) PTRACERS_SOM_Advection = /* tracer uses SOM advection scheme */
(PID.TID 0000.0001)                   F
(PID.TID 0000.0001)     ;
(PID.TID 0000.0001) PTRACERS_ImplVertAdv = /* implicit vert. advection flag */
(PID.TID 0000.0001)                   F
(PID.TID 0000.0001)     ;
(PID.TID 0000.0001) PTRACERS_diffKh = /* Laplacian Diffusivity */
(PID.TID 0000.0001)                 0.000000000000000E+00
(PID.TID 0000.0001)     ;
(PID.TID 0000.0001) PTRACERS_diffK4 = /* Biharmonic Diffusivity */
(PID.TID 0000.0001)                 0.000000000000000E+00
(PID.TID 0000.0001)     ;
(PID.TID 0000.0001) PTRACERS_diffKrNr = /* Vertical Diffusivity */
(PID.TID 0000.0001)    35 @  1.000000000000000E-05              /* K =  1: 35 */
(PID.TID 0000.0001)     ;
(PID.TID 0000.0001) PTRACERS_useGMRedi = /* apply GM-Redi */
(PID.TID 0000.0001)                   F
(PID.TID 0000.0001)     ;
(PID.TID 0000.0001) PTRACERS_useDWNSLP = /* apply DOWN-SLOPE Flow */
(PID.TID 0000.0001)                   F
(PID.TID 0000.0001)     ;
(PID.TID 0000.0001) PTRACERS_useKPP = /* apply KPP scheme */
(PID.TID 0000.0001)                   F
(PID.TID 0000.0001)     ;
(PID.TID 0000.0001) PTRACERS_ref = /* Reference vertical profile */
(PID.TID 0000.0001)    35 @  0.000000000000000E+00              /* K =  1: 35 */
(PID.TID 0000.0001)     ;
(PID.TID 0000.0001) PTRACERS_EvPrRn =/* tracer conc. in Evap. & Rain */
(PID.TID 0000.0001)                 1.234567000000000E+05
(PID.TID 0000.0001)     ;
(PID.TID 0000.0001)  -----------------------------------
(PID.TID 0000.0001)  tracer number :  131
(PID.TID 0000.0001) PTRACERS_names = /* Tracer short name */
(PID.TID 0000.0001)               'Chl34'
(PID.TID 0000.0001)     ;
(PID.TID 0000.0001) PTRACERS_long_names = /* Tracer long name */
(PID.TID 0000.0001)               ''
(PID.TID 0000.0001)     ;
(PID.TID 0000.0001) PTRACERS_ioLabel = /* tracer IO Label */
(PID.TID 0000.0001)               '0F'
(PID.TID 0000.0001)     ;
(PID.TID 0000.0001) PTRACERS_advScheme = /* Advection Scheme */
(PID.TID 0000.0001)                      33
(PID.TID 0000.0001)     ;
(PID.TID 0000.0001) PTRACERS_SOM_Advection = /* tracer uses SOM advection scheme */
(PID.TID 0000.0001)                   F
(PID.TID 0000.0001)     ;
(PID.TID 0000.0001) PTRACERS_ImplVertAdv = /* implicit vert. advection flag */
(PID.TID 0000.0001)                   F
(PID.TID 0000.0001)     ;
(PID.TID 0000.0001) PTRACERS_diffKh = /* Laplacian Diffusivity */
(PID.TID 0000.0001)                 0.000000000000000E+00
(PID.TID 0000.0001)     ;
(PID.TID 0000.0001) PTRACERS_diffK4 = /* Biharmonic Diffusivity */
(PID.TID 0000.0001)                 0.000000000000000E+00
(PID.TID 0000.0001)     ;
(PID.TID 0000.0001) PTRACERS_diffKrNr = /* Vertical Diffusivity */
(PID.TID 0000.0001)    35 @  1.000000000000000E-05              /* K =  1: 35 */
(PID.TID 0000.0001)     ;
(PID.TID 0000.0001) PTRACERS_useGMRedi = /* apply GM-Redi */
(PID.TID 0000.0001)                   F
(PID.TID 0000.0001)     ;
(PID.TID 0000.0001) PTRACERS_useDWNSLP = /* apply DOWN-SLOPE Flow */
(PID.TID 0000.0001)                   F
(PID.TID 0000.0001)     ;
(PID.TID 0000.0001) PTRACERS_useKPP = /* apply KPP scheme */
(PID.TID 0000.0001)                   F
(PID.TID 0000.0001)     ;
(PID.TID 0000.0001) PTRACERS_ref = /* Reference vertical profile */
(PID.TID 0000.0001)    35 @  0.000000000000000E+00              /* K =  1: 35 */
(PID.TID 0000.0001)     ;
(PID.TID 0000.0001) PTRACERS_EvPrRn =/* tracer conc. in Evap. & Rain */
(PID.TID 0000.0001)                 1.234567000000000E+05
(PID.TID 0000.0001)     ;
(PID.TID 0000.0001)  -----------------------------------
(PID.TID 0000.0001)  tracer number :  132
(PID.TID 0000.0001) PTRACERS_names = /* Tracer short name */
(PID.TID 0000.0001)               'Chl35'
(PID.TID 0000.0001)     ;
(PID.TID 0000.0001) PTRACERS_long_names = /* Tracer long name */
(PID.TID 0000.0001)               ''
(PID.TID 0000.0001)     ;
(PID.TID 0000.0001) PTRACERS_ioLabel = /* tracer IO Label */
(PID.TID 0000.0001)               '0G'
(PID.TID 0000.0001)     ;
(PID.TID 0000.0001) PTRACERS_advScheme = /* Advection Scheme */
(PID.TID 0000.0001)                      33
(PID.TID 0000.0001)     ;
(PID.TID 0000.0001) PTRACERS_SOM_Advection = /* tracer uses SOM advection scheme */
(PID.TID 0000.0001)                   F
(PID.TID 0000.0001)     ;
(PID.TID 0000.0001) PTRACERS_ImplVertAdv = /* implicit vert. advection flag */
(PID.TID 0000.0001)                   F
(PID.TID 0000.0001)     ;
(PID.TID 0000.0001) PTRACERS_diffKh = /* Laplacian Diffusivity */
(PID.TID 0000.0001)                 0.000000000000000E+00
(PID.TID 0000.0001)     ;
(PID.TID 0000.0001) PTRACERS_diffK4 = /* Biharmonic Diffusivity */
(PID.TID 0000.0001)                 0.000000000000000E+00
(PID.TID 0000.0001)     ;
(PID.TID 0000.0001) PTRACERS_diffKrNr = /* Vertical Diffusivity */
(PID.TID 0000.0001)    35 @  1.000000000000000E-05              /* K =  1: 35 */
(PID.TID 0000.0001)     ;
(PID.TID 0000.0001) PTRACERS_useGMRedi = /* apply GM-Redi */
(PID.TID 0000.0001)                   F
(PID.TID 0000.0001)     ;
(PID.TID 0000.0001) PTRACERS_useDWNSLP = /* apply DOWN-SLOPE Flow */
(PID.TID 0000.0001)                   F
(PID.TID 0000.0001)     ;
(PID.TID 0000.0001) PTRACERS_useKPP = /* apply KPP scheme */
(PID.TID 0000.0001)                   F
(PID.TID 0000.0001)     ;
(PID.TID 0000.0001) PTRACERS_ref = /* Reference vertical profile */
(PID.TID 0000.0001)    35 @  0.000000000000000E+00              /* K =  1: 35 */
(PID.TID 0000.0001)     ;
(PID.TID 0000.0001) PTRACERS_EvPrRn =/* tracer conc. in Evap. & Rain */
(PID.TID 0000.0001)                 1.234567000000000E+05
(PID.TID 0000.0001)     ;
(PID.TID 0000.0001)  -----------------------------------
(PID.TID 0000.0001)  tracer number :  133
(PID.TID 0000.0001) PTRACERS_names = /* Tracer short name */
(PID.TID 0000.0001)               'Chl36'
(PID.TID 0000.0001)     ;
(PID.TID 0000.0001) PTRACERS_long_names = /* Tracer long name */
(PID.TID 0000.0001)               ''
(PID.TID 0000.0001)     ;
(PID.TID 0000.0001) PTRACERS_ioLabel = /* tracer IO Label */
(PID.TID 0000.0001)               '0H'
(PID.TID 0000.0001)     ;
(PID.TID 0000.0001) PTRACERS_advScheme = /* Advection Scheme */
(PID.TID 0000.0001)                      33
(PID.TID 0000.0001)     ;
(PID.TID 0000.0001) PTRACERS_SOM_Advection = /* tracer uses SOM advection scheme */
(PID.TID 0000.0001)                   F
(PID.TID 0000.0001)     ;
(PID.TID 0000.0001) PTRACERS_ImplVertAdv = /* implicit vert. advection flag */
(PID.TID 0000.0001)                   F
(PID.TID 0000.0001)     ;
(PID.TID 0000.0001) PTRACERS_diffKh = /* Laplacian Diffusivity */
(PID.TID 0000.0001)                 0.000000000000000E+00
(PID.TID 0000.0001)     ;
(PID.TID 0000.0001) PTRACERS_diffK4 = /* Biharmonic Diffusivity */
(PID.TID 0000.0001)                 0.000000000000000E+00
(PID.TID 0000.0001)     ;
(PID.TID 0000.0001) PTRACERS_diffKrNr = /* Vertical Diffusivity */
(PID.TID 0000.0001)    35 @  1.000000000000000E-05              /* K =  1: 35 */
(PID.TID 0000.0001)     ;
(PID.TID 0000.0001) PTRACERS_useGMRedi = /* apply GM-Redi */
(PID.TID 0000.0001)                   F
(PID.TID 0000.0001)     ;
(PID.TID 0000.0001) PTRACERS_useDWNSLP = /* apply DOWN-SLOPE Flow */
(PID.TID 0000.0001)                   F
(PID.TID 0000.0001)     ;
(PID.TID 0000.0001) PTRACERS_useKPP = /* apply KPP scheme */
(PID.TID 0000.0001)                   F
(PID.TID 0000.0001)     ;
(PID.TID 0000.0001) PTRACERS_ref = /* Reference vertical profile */
(PID.TID 0000.0001)    35 @  0.000000000000000E+00              /* K =  1: 35 */
(PID.TID 0000.0001)     ;
(PID.TID 0000.0001) PTRACERS_EvPrRn =/* tracer conc. in Evap. & Rain */
(PID.TID 0000.0001)                 1.234567000000000E+05
(PID.TID 0000.0001)     ;
(PID.TID 0000.0001)  -----------------------------------
(PID.TID 0000.0001)  tracer number :  134
(PID.TID 0000.0001) PTRACERS_names = /* Tracer short name */
(PID.TID 0000.0001)               'Chl37'
(PID.TID 0000.0001)     ;
(PID.TID 0000.0001) PTRACERS_long_names = /* Tracer long name */
(PID.TID 0000.0001)               ''
(PID.TID 0000.0001)     ;
(PID.TID 0000.0001) PTRACERS_ioLabel = /* tracer IO Label */
(PID.TID 0000.0001)               '0I'
(PID.TID 0000.0001)     ;
(PID.TID 0000.0001) PTRACERS_advScheme = /* Advection Scheme */
(PID.TID 0000.0001)                      33
(PID.TID 0000.0001)     ;
(PID.TID 0000.0001) PTRACERS_SOM_Advection = /* tracer uses SOM advection scheme */
(PID.TID 0000.0001)                   F
(PID.TID 0000.0001)     ;
(PID.TID 0000.0001) PTRACERS_ImplVertAdv = /* implicit vert. advection flag */
(PID.TID 0000.0001)                   F
(PID.TID 0000.0001)     ;
(PID.TID 0000.0001) PTRACERS_diffKh = /* Laplacian Diffusivity */
(PID.TID 0000.0001)                 0.000000000000000E+00
(PID.TID 0000.0001)     ;
(PID.TID 0000.0001) PTRACERS_diffK4 = /* Biharmonic Diffusivity */
(PID.TID 0000.0001)                 0.000000000000000E+00
(PID.TID 0000.0001)     ;
(PID.TID 0000.0001) PTRACERS_diffKrNr = /* Vertical Diffusivity */
(PID.TID 0000.0001)    35 @  1.000000000000000E-05              /* K =  1: 35 */
(PID.TID 0000.0001)     ;
(PID.TID 0000.0001) PTRACERS_useGMRedi = /* apply GM-Redi */
(PID.TID 0000.0001)                   F
(PID.TID 0000.0001)     ;
(PID.TID 0000.0001) PTRACERS_useDWNSLP = /* apply DOWN-SLOPE Flow */
(PID.TID 0000.0001)                   F
(PID.TID 0000.0001)     ;
(PID.TID 0000.0001) PTRACERS_useKPP = /* apply KPP scheme */
(PID.TID 0000.0001)                   F
(PID.TID 0000.0001)     ;
(PID.TID 0000.0001) PTRACERS_ref = /* Reference vertical profile */
(PID.TID 0000.0001)    35 @  0.000000000000000E+00              /* K =  1: 35 */
(PID.TID 0000.0001)     ;
(PID.TID 0000.0001) PTRACERS_EvPrRn =/* tracer conc. in Evap. & Rain */
(PID.TID 0000.0001)                 1.234567000000000E+05
(PID.TID 0000.0001)     ;
(PID.TID 0000.0001)  -----------------------------------
(PID.TID 0000.0001)  tracer number :  135
(PID.TID 0000.0001) PTRACERS_names = /* Tracer short name */
(PID.TID 0000.0001)               'Chl38'
(PID.TID 0000.0001)     ;
(PID.TID 0000.0001) PTRACERS_long_names = /* Tracer long name */
(PID.TID 0000.0001)               ''
(PID.TID 0000.0001)     ;
(PID.TID 0000.0001) PTRACERS_ioLabel = /* tracer IO Label */
(PID.TID 0000.0001)               '0J'
(PID.TID 0000.0001)     ;
(PID.TID 0000.0001) PTRACERS_advScheme = /* Advection Scheme */
(PID.TID 0000.0001)                      33
(PID.TID 0000.0001)     ;
(PID.TID 0000.0001) PTRACERS_SOM_Advection = /* tracer uses SOM advection scheme */
(PID.TID 0000.0001)                   F
(PID.TID 0000.0001)     ;
(PID.TID 0000.0001) PTRACERS_ImplVertAdv = /* implicit vert. advection flag */
(PID.TID 0000.0001)                   F
(PID.TID 0000.0001)     ;
(PID.TID 0000.0001) PTRACERS_diffKh = /* Laplacian Diffusivity */
(PID.TID 0000.0001)                 0.000000000000000E+00
(PID.TID 0000.0001)     ;
(PID.TID 0000.0001) PTRACERS_diffK4 = /* Biharmonic Diffusivity */
(PID.TID 0000.0001)                 0.000000000000000E+00
(PID.TID 0000.0001)     ;
(PID.TID 0000.0001) PTRACERS_diffKrNr = /* Vertical Diffusivity */
(PID.TID 0000.0001)    35 @  1.000000000000000E-05              /* K =  1: 35 */
(PID.TID 0000.0001)     ;
(PID.TID 0000.0001) PTRACERS_useGMRedi = /* apply GM-Redi */
(PID.TID 0000.0001)                   F
(PID.TID 0000.0001)     ;
(PID.TID 0000.0001) PTRACERS_useDWNSLP = /* apply DOWN-SLOPE Flow */
(PID.TID 0000.0001)                   F
(PID.TID 0000.0001)     ;
(PID.TID 0000.0001) PTRACERS_useKPP = /* apply KPP scheme */
(PID.TID 0000.0001)                   F
(PID.TID 0000.0001)     ;
(PID.TID 0000.0001) PTRACERS_ref = /* Reference vertical profile */
(PID.TID 0000.0001)    35 @  0.000000000000000E+00              /* K =  1: 35 */
(PID.TID 0000.0001)     ;
(PID.TID 0000.0001) PTRACERS_EvPrRn =/* tracer conc. in Evap. & Rain */
(PID.TID 0000.0001)                 1.234567000000000E+05
(PID.TID 0000.0001)     ;
(PID.TID 0000.0001)  -----------------------------------
(PID.TID 0000.0001)  tracer number :  136
(PID.TID 0000.0001) PTRACERS_names = /* Tracer short name */
(PID.TID 0000.0001)               'Chl39'
(PID.TID 0000.0001)     ;
(PID.TID 0000.0001) PTRACERS_long_names = /* Tracer long name */
(PID.TID 0000.0001)               ''
(PID.TID 0000.0001)     ;
(PID.TID 0000.0001) PTRACERS_ioLabel = /* tracer IO Label */
(PID.TID 0000.0001)               '0K'
(PID.TID 0000.0001)     ;
(PID.TID 0000.0001) PTRACERS_advScheme = /* Advection Scheme */
(PID.TID 0000.0001)                      33
(PID.TID 0000.0001)     ;
(PID.TID 0000.0001) PTRACERS_SOM_Advection = /* tracer uses SOM advection scheme */
(PID.TID 0000.0001)                   F
(PID.TID 0000.0001)     ;
(PID.TID 0000.0001) PTRACERS_ImplVertAdv = /* implicit vert. advection flag */
(PID.TID 0000.0001)                   F
(PID.TID 0000.0001)     ;
(PID.TID 0000.0001) PTRACERS_diffKh = /* Laplacian Diffusivity */
(PID.TID 0000.0001)                 0.000000000000000E+00
(PID.TID 0000.0001)     ;
(PID.TID 0000.0001) PTRACERS_diffK4 = /* Biharmonic Diffusivity */
(PID.TID 0000.0001)                 0.000000000000000E+00
(PID.TID 0000.0001)     ;
(PID.TID 0000.0001) PTRACERS_diffKrNr = /* Vertical Diffusivity */
(PID.TID 0000.0001)    35 @  1.000000000000000E-05              /* K =  1: 35 */
(PID.TID 0000.0001)     ;
(PID.TID 0000.0001) PTRACERS_useGMRedi = /* apply GM-Redi */
(PID.TID 0000.0001)                   F
(PID.TID 0000.0001)     ;
(PID.TID 0000.0001) PTRACERS_useDWNSLP = /* apply DOWN-SLOPE Flow */
(PID.TID 0000.0001)                   F
(PID.TID 0000.0001)     ;
(PID.TID 0000.0001) PTRACERS_useKPP = /* apply KPP scheme */
(PID.TID 0000.0001)                   F
(PID.TID 0000.0001)     ;
(PID.TID 0000.0001) PTRACERS_ref = /* Reference vertical profile */
(PID.TID 0000.0001)    35 @  0.000000000000000E+00              /* K =  1: 35 */
(PID.TID 0000.0001)     ;
(PID.TID 0000.0001) PTRACERS_EvPrRn =/* tracer conc. in Evap. & Rain */
(PID.TID 0000.0001)                 1.234567000000000E+05
(PID.TID 0000.0001)     ;
(PID.TID 0000.0001)  -----------------------------------
(PID.TID 0000.0001)  tracer number :  137
(PID.TID 0000.0001) PTRACERS_names = /* Tracer short name */
(PID.TID 0000.0001)               'Chl40'
(PID.TID 0000.0001)     ;
(PID.TID 0000.0001) PTRACERS_long_names = /* Tracer long name */
(PID.TID 0000.0001)               ''
(PID.TID 0000.0001)     ;
(PID.TID 0000.0001) PTRACERS_ioLabel = /* tracer IO Label */
(PID.TID 0000.0001)               '0L'
(PID.TID 0000.0001)     ;
(PID.TID 0000.0001) PTRACERS_advScheme = /* Advection Scheme */
(PID.TID 0000.0001)                      33
(PID.TID 0000.0001)     ;
(PID.TID 0000.0001) PTRACERS_SOM_Advection = /* tracer uses SOM advection scheme */
(PID.TID 0000.0001)                   F
(PID.TID 0000.0001)     ;
(PID.TID 0000.0001) PTRACERS_ImplVertAdv = /* implicit vert. advection flag */
(PID.TID 0000.0001)                   F
(PID.TID 0000.0001)     ;
(PID.TID 0000.0001) PTRACERS_diffKh = /* Laplacian Diffusivity */
(PID.TID 0000.0001)                 0.000000000000000E+00
(PID.TID 0000.0001)     ;
(PID.TID 0000.0001) PTRACERS_diffK4 = /* Biharmonic Diffusivity */
(PID.TID 0000.0001)                 0.000000000000000E+00
(PID.TID 0000.0001)     ;
(PID.TID 0000.0001) PTRACERS_diffKrNr = /* Vertical Diffusivity */
(PID.TID 0000.0001)    35 @  1.000000000000000E-05              /* K =  1: 35 */
(PID.TID 0000.0001)     ;
(PID.TID 0000.0001) PTRACERS_useGMRedi = /* apply GM-Redi */
(PID.TID 0000.0001)                   F
(PID.TID 0000.0001)     ;
(PID.TID 0000.0001) PTRACERS_useDWNSLP = /* apply DOWN-SLOPE Flow */
(PID.TID 0000.0001)                   F
(PID.TID 0000.0001)     ;
(PID.TID 0000.0001) PTRACERS_useKPP = /* apply KPP scheme */
(PID.TID 0000.0001)                   F
(PID.TID 0000.0001)     ;
(PID.TID 0000.0001) PTRACERS_ref = /* Reference vertical profile */
(PID.TID 0000.0001)    35 @  0.000000000000000E+00              /* K =  1: 35 */
(PID.TID 0000.0001)     ;
(PID.TID 0000.0001) PTRACERS_EvPrRn =/* tracer conc. in Evap. & Rain */
(PID.TID 0000.0001)                 1.234567000000000E+05
(PID.TID 0000.0001)     ;
(PID.TID 0000.0001)  -----------------------------------
(PID.TID 0000.0001)  tracer number :  138
(PID.TID 0000.0001) PTRACERS_names = /* Tracer short name */
(PID.TID 0000.0001)               'Chl41'
(PID.TID 0000.0001)     ;
(PID.TID 0000.0001) PTRACERS_long_names = /* Tracer long name */
(PID.TID 0000.0001)               ''
(PID.TID 0000.0001)     ;
(PID.TID 0000.0001) PTRACERS_ioLabel = /* tracer IO Label */
(PID.TID 0000.0001)               '0M'
(PID.TID 0000.0001)     ;
(PID.TID 0000.0001) PTRACERS_advScheme = /* Advection Scheme */
(PID.TID 0000.0001)                      33
(PID.TID 0000.0001)     ;
(PID.TID 0000.0001) PTRACERS_SOM_Advection = /* tracer uses SOM advection scheme */
(PID.TID 0000.0001)                   F
(PID.TID 0000.0001)     ;
(PID.TID 0000.0001) PTRACERS_ImplVertAdv = /* implicit vert. advection flag */
(PID.TID 0000.0001)                   F
(PID.TID 0000.0001)     ;
(PID.TID 0000.0001) PTRACERS_diffKh = /* Laplacian Diffusivity */
(PID.TID 0000.0001)                 0.000000000000000E+00
(PID.TID 0000.0001)     ;
(PID.TID 0000.0001) PTRACERS_diffK4 = /* Biharmonic Diffusivity */
(PID.TID 0000.0001)                 0.000000000000000E+00
(PID.TID 0000.0001)     ;
(PID.TID 0000.0001) PTRACERS_diffKrNr = /* Vertical Diffusivity */
(PID.TID 0000.0001)    35 @  1.000000000000000E-05              /* K =  1: 35 */
(PID.TID 0000.0001)     ;
(PID.TID 0000.0001) PTRACERS_useGMRedi = /* apply GM-Redi */
(PID.TID 0000.0001)                   F
(PID.TID 0000.0001)     ;
(PID.TID 0000.0001) PTRACERS_useDWNSLP = /* apply DOWN-SLOPE Flow */
(PID.TID 0000.0001)                   F
(PID.TID 0000.0001)     ;
(PID.TID 0000.0001) PTRACERS_useKPP = /* apply KPP scheme */
(PID.TID 0000.0001)                   F
(PID.TID 0000.0001)     ;
(PID.TID 0000.0001) PTRACERS_ref = /* Reference vertical profile */
(PID.TID 0000.0001)    35 @  0.000000000000000E+00              /* K =  1: 35 */
(PID.TID 0000.0001)     ;
(PID.TID 0000.0001) PTRACERS_EvPrRn =/* tracer conc. in Evap. & Rain */
(PID.TID 0000.0001)                 1.234567000000000E+05
(PID.TID 0000.0001)     ;
(PID.TID 0000.0001)  -----------------------------------
(PID.TID 0000.0001)  tracer number :  139
(PID.TID 0000.0001) PTRACERS_names = /* Tracer short name */
(PID.TID 0000.0001)               'Chl42'
(PID.TID 0000.0001)     ;
(PID.TID 0000.0001) PTRACERS_long_names = /* Tracer long name */
(PID.TID 0000.0001)               ''
(PID.TID 0000.0001)     ;
(PID.TID 0000.0001) PTRACERS_ioLabel = /* tracer IO Label */
(PID.TID 0000.0001)               '0N'
(PID.TID 0000.0001)     ;
(PID.TID 0000.0001) PTRACERS_advScheme = /* Advection Scheme */
(PID.TID 0000.0001)                      33
(PID.TID 0000.0001)     ;
(PID.TID 0000.0001) PTRACERS_SOM_Advection = /* tracer uses SOM advection scheme */
(PID.TID 0000.0001)                   F
(PID.TID 0000.0001)     ;
(PID.TID 0000.0001) PTRACERS_ImplVertAdv = /* implicit vert. advection flag */
(PID.TID 0000.0001)                   F
(PID.TID 0000.0001)     ;
(PID.TID 0000.0001) PTRACERS_diffKh = /* Laplacian Diffusivity */
(PID.TID 0000.0001)                 0.000000000000000E+00
(PID.TID 0000.0001)     ;
(PID.TID 0000.0001) PTRACERS_diffK4 = /* Biharmonic Diffusivity */
(PID.TID 0000.0001)                 0.000000000000000E+00
(PID.TID 0000.0001)     ;
(PID.TID 0000.0001) PTRACERS_diffKrNr = /* Vertical Diffusivity */
(PID.TID 0000.0001)    35 @  1.000000000000000E-05              /* K =  1: 35 */
(PID.TID 0000.0001)     ;
(PID.TID 0000.0001) PTRACERS_useGMRedi = /* apply GM-Redi */
(PID.TID 0000.0001)                   F
(PID.TID 0000.0001)     ;
(PID.TID 0000.0001) PTRACERS_useDWNSLP = /* apply DOWN-SLOPE Flow */
(PID.TID 0000.0001)                   F
(PID.TID 0000.0001)     ;
(PID.TID 0000.0001) PTRACERS_useKPP = /* apply KPP scheme */
(PID.TID 0000.0001)                   F
(PID.TID 0000.0001)     ;
(PID.TID 0000.0001) PTRACERS_ref = /* Reference vertical profile */
(PID.TID 0000.0001)    35 @  0.000000000000000E+00              /* K =  1: 35 */
(PID.TID 0000.0001)     ;
(PID.TID 0000.0001) PTRACERS_EvPrRn =/* tracer conc. in Evap. & Rain */
(PID.TID 0000.0001)                 1.234567000000000E+05
(PID.TID 0000.0001)     ;
(PID.TID 0000.0001)  -----------------------------------
(PID.TID 0000.0001)  tracer number :  140
(PID.TID 0000.0001) PTRACERS_names = /* Tracer short name */
(PID.TID 0000.0001)               'Chl43'
(PID.TID 0000.0001)     ;
(PID.TID 0000.0001) PTRACERS_long_names = /* Tracer long name */
(PID.TID 0000.0001)               ''
(PID.TID 0000.0001)     ;
(PID.TID 0000.0001) PTRACERS_ioLabel = /* tracer IO Label */
(PID.TID 0000.0001)               '0O'
(PID.TID 0000.0001)     ;
(PID.TID 0000.0001) PTRACERS_advScheme = /* Advection Scheme */
(PID.TID 0000.0001)                      33
(PID.TID 0000.0001)     ;
(PID.TID 0000.0001) PTRACERS_SOM_Advection = /* tracer uses SOM advection scheme */
(PID.TID 0000.0001)                   F
(PID.TID 0000.0001)     ;
(PID.TID 0000.0001) PTRACERS_ImplVertAdv = /* implicit vert. advection flag */
(PID.TID 0000.0001)                   F
(PID.TID 0000.0001)     ;
(PID.TID 0000.0001) PTRACERS_diffKh = /* Laplacian Diffusivity */
(PID.TID 0000.0001)                 0.000000000000000E+00
(PID.TID 0000.0001)     ;
(PID.TID 0000.0001) PTRACERS_diffK4 = /* Biharmonic Diffusivity */
(PID.TID 0000.0001)                 0.000000000000000E+00
(PID.TID 0000.0001)     ;
(PID.TID 0000.0001) PTRACERS_diffKrNr = /* Vertical Diffusivity */
(PID.TID 0000.0001)    35 @  1.000000000000000E-05              /* K =  1: 35 */
(PID.TID 0000.0001)     ;
(PID.TID 0000.0001) PTRACERS_useGMRedi = /* apply GM-Redi */
(PID.TID 0000.0001)                   F
(PID.TID 0000.0001)     ;
(PID.TID 0000.0001) PTRACERS_useDWNSLP = /* apply DOWN-SLOPE Flow */
(PID.TID 0000.0001)                   F
(PID.TID 0000.0001)     ;
(PID.TID 0000.0001) PTRACERS_useKPP = /* apply KPP scheme */
(PID.TID 0000.0001)                   F
(PID.TID 0000.0001)     ;
(PID.TID 0000.0001) PTRACERS_ref = /* Reference vertical profile */
(PID.TID 0000.0001)    35 @  0.000000000000000E+00              /* K =  1: 35 */
(PID.TID 0000.0001)     ;
(PID.TID 0000.0001) PTRACERS_EvPrRn =/* tracer conc. in Evap. & Rain */
(PID.TID 0000.0001)                 1.234567000000000E+05
(PID.TID 0000.0001)     ;
(PID.TID 0000.0001)  -----------------------------------
(PID.TID 0000.0001)  tracer number :  141
(PID.TID 0000.0001) PTRACERS_names = /* Tracer short name */
(PID.TID 0000.0001)               'Chl44'
(PID.TID 0000.0001)     ;
(PID.TID 0000.0001) PTRACERS_long_names = /* Tracer long name */
(PID.TID 0000.0001)               ''
(PID.TID 0000.0001)     ;
(PID.TID 0000.0001) PTRACERS_ioLabel = /* tracer IO Label */
(PID.TID 0000.0001)               '0P'
(PID.TID 0000.0001)     ;
(PID.TID 0000.0001) PTRACERS_advScheme = /* Advection Scheme */
(PID.TID 0000.0001)                      33
(PID.TID 0000.0001)     ;
(PID.TID 0000.0001) PTRACERS_SOM_Advection = /* tracer uses SOM advection scheme */
(PID.TID 0000.0001)                   F
(PID.TID 0000.0001)     ;
(PID.TID 0000.0001) PTRACERS_ImplVertAdv = /* implicit vert. advection flag */
(PID.TID 0000.0001)                   F
(PID.TID 0000.0001)     ;
(PID.TID 0000.0001) PTRACERS_diffKh = /* Laplacian Diffusivity */
(PID.TID 0000.0001)                 0.000000000000000E+00
(PID.TID 0000.0001)     ;
(PID.TID 0000.0001) PTRACERS_diffK4 = /* Biharmonic Diffusivity */
(PID.TID 0000.0001)                 0.000000000000000E+00
(PID.TID 0000.0001)     ;
(PID.TID 0000.0001) PTRACERS_diffKrNr = /* Vertical Diffusivity */
(PID.TID 0000.0001)    35 @  1.000000000000000E-05              /* K =  1: 35 */
(PID.TID 0000.0001)     ;
(PID.TID 0000.0001) PTRACERS_useGMRedi = /* apply GM-Redi */
(PID.TID 0000.0001)                   F
(PID.TID 0000.0001)     ;
(PID.TID 0000.0001) PTRACERS_useDWNSLP = /* apply DOWN-SLOPE Flow */
(PID.TID 0000.0001)                   F
(PID.TID 0000.0001)     ;
(PID.TID 0000.0001) PTRACERS_useKPP = /* apply KPP scheme */
(PID.TID 0000.0001)                   F
(PID.TID 0000.0001)     ;
(PID.TID 0000.0001) PTRACERS_ref = /* Reference vertical profile */
(PID.TID 0000.0001)    35 @  0.000000000000000E+00              /* K =  1: 35 */
(PID.TID 0000.0001)     ;
(PID.TID 0000.0001) PTRACERS_EvPrRn =/* tracer conc. in Evap. & Rain */
(PID.TID 0000.0001)                 1.234567000000000E+05
(PID.TID 0000.0001)     ;
(PID.TID 0000.0001)  -----------------------------------
(PID.TID 0000.0001)  tracer number :  142
(PID.TID 0000.0001) PTRACERS_names = /* Tracer short name */
(PID.TID 0000.0001)               'Chl45'
(PID.TID 0000.0001)     ;
(PID.TID 0000.0001) PTRACERS_long_names = /* Tracer long name */
(PID.TID 0000.0001)               ''
(PID.TID 0000.0001)     ;
(PID.TID 0000.0001) PTRACERS_ioLabel = /* tracer IO Label */
(PID.TID 0000.0001)               '0Q'
(PID.TID 0000.0001)     ;
(PID.TID 0000.0001) PTRACERS_advScheme = /* Advection Scheme */
(PID.TID 0000.0001)                      33
(PID.TID 0000.0001)     ;
(PID.TID 0000.0001) PTRACERS_SOM_Advection = /* tracer uses SOM advection scheme */
(PID.TID 0000.0001)                   F
(PID.TID 0000.0001)     ;
(PID.TID 0000.0001) PTRACERS_ImplVertAdv = /* implicit vert. advection flag */
(PID.TID 0000.0001)                   F
(PID.TID 0000.0001)     ;
(PID.TID 0000.0001) PTRACERS_diffKh = /* Laplacian Diffusivity */
(PID.TID 0000.0001)                 0.000000000000000E+00
(PID.TID 0000.0001)     ;
(PID.TID 0000.0001) PTRACERS_diffK4 = /* Biharmonic Diffusivity */
(PID.TID 0000.0001)                 0.000000000000000E+00
(PID.TID 0000.0001)     ;
(PID.TID 0000.0001) PTRACERS_diffKrNr = /* Vertical Diffusivity */
(PID.TID 0000.0001)    35 @  1.000000000000000E-05              /* K =  1: 35 */
(PID.TID 0000.0001)     ;
(PID.TID 0000.0001) PTRACERS_useGMRedi = /* apply GM-Redi */
(PID.TID 0000.0001)                   F
(PID.TID 0000.0001)     ;
(PID.TID 0000.0001) PTRACERS_useDWNSLP = /* apply DOWN-SLOPE Flow */
(PID.TID 0000.0001)                   F
(PID.TID 0000.0001)     ;
(PID.TID 0000.0001) PTRACERS_useKPP = /* apply KPP scheme */
(PID.TID 0000.0001)                   F
(PID.TID 0000.0001)     ;
(PID.TID 0000.0001) PTRACERS_ref = /* Reference vertical profile */
(PID.TID 0000.0001)    35 @  0.000000000000000E+00              /* K =  1: 35 */
(PID.TID 0000.0001)     ;
(PID.TID 0000.0001) PTRACERS_EvPrRn =/* tracer conc. in Evap. & Rain */
(PID.TID 0000.0001)                 1.234567000000000E+05
(PID.TID 0000.0001)     ;
(PID.TID 0000.0001)  -----------------------------------
(PID.TID 0000.0001)  tracer number :  143
(PID.TID 0000.0001) PTRACERS_names = /* Tracer short name */
(PID.TID 0000.0001)               'Chl46'
(PID.TID 0000.0001)     ;
(PID.TID 0000.0001) PTRACERS_long_names = /* Tracer long name */
(PID.TID 0000.0001)               ''
(PID.TID 0000.0001)     ;
(PID.TID 0000.0001) PTRACERS_ioLabel = /* tracer IO Label */
(PID.TID 0000.0001)               '0R'
(PID.TID 0000.0001)     ;
(PID.TID 0000.0001) PTRACERS_advScheme = /* Advection Scheme */
(PID.TID 0000.0001)                      33
(PID.TID 0000.0001)     ;
(PID.TID 0000.0001) PTRACERS_SOM_Advection = /* tracer uses SOM advection scheme */
(PID.TID 0000.0001)                   F
(PID.TID 0000.0001)     ;
(PID.TID 0000.0001) PTRACERS_ImplVertAdv = /* implicit vert. advection flag */
(PID.TID 0000.0001)                   F
(PID.TID 0000.0001)     ;
(PID.TID 0000.0001) PTRACERS_diffKh = /* Laplacian Diffusivity */
(PID.TID 0000.0001)                 0.000000000000000E+00
(PID.TID 0000.0001)     ;
(PID.TID 0000.0001) PTRACERS_diffK4 = /* Biharmonic Diffusivity */
(PID.TID 0000.0001)                 0.000000000000000E+00
(PID.TID 0000.0001)     ;
(PID.TID 0000.0001) PTRACERS_diffKrNr = /* Vertical Diffusivity */
(PID.TID 0000.0001)    35 @  1.000000000000000E-05              /* K =  1: 35 */
(PID.TID 0000.0001)     ;
(PID.TID 0000.0001) PTRACERS_useGMRedi = /* apply GM-Redi */
(PID.TID 0000.0001)                   F
(PID.TID 0000.0001)     ;
(PID.TID 0000.0001) PTRACERS_useDWNSLP = /* apply DOWN-SLOPE Flow */
(PID.TID 0000.0001)                   F
(PID.TID 0000.0001)     ;
(PID.TID 0000.0001) PTRACERS_useKPP = /* apply KPP scheme */
(PID.TID 0000.0001)                   F
(PID.TID 0000.0001)     ;
(PID.TID 0000.0001) PTRACERS_ref = /* Reference vertical profile */
(PID.TID 0000.0001)    35 @  0.000000000000000E+00              /* K =  1: 35 */
(PID.TID 0000.0001)     ;
(PID.TID 0000.0001) PTRACERS_EvPrRn =/* tracer conc. in Evap. & Rain */
(PID.TID 0000.0001)                 1.234567000000000E+05
(PID.TID 0000.0001)     ;
(PID.TID 0000.0001)  -----------------------------------
(PID.TID 0000.0001)  tracer number :  144
(PID.TID 0000.0001) PTRACERS_names = /* Tracer short name */
(PID.TID 0000.0001)               'Chl47'
(PID.TID 0000.0001)     ;
(PID.TID 0000.0001) PTRACERS_long_names = /* Tracer long name */
(PID.TID 0000.0001)               ''
(PID.TID 0000.0001)     ;
(PID.TID 0000.0001) PTRACERS_ioLabel = /* tracer IO Label */
(PID.TID 0000.0001)               '0S'
(PID.TID 0000.0001)     ;
(PID.TID 0000.0001) PTRACERS_advScheme = /* Advection Scheme */
(PID.TID 0000.0001)                      33
(PID.TID 0000.0001)     ;
(PID.TID 0000.0001) PTRACERS_SOM_Advection = /* tracer uses SOM advection scheme */
(PID.TID 0000.0001)                   F
(PID.TID 0000.0001)     ;
(PID.TID 0000.0001) PTRACERS_ImplVertAdv = /* implicit vert. advection flag */
(PID.TID 0000.0001)                   F
(PID.TID 0000.0001)     ;
(PID.TID 0000.0001) PTRACERS_diffKh = /* Laplacian Diffusivity */
(PID.TID 0000.0001)                 0.000000000000000E+00
(PID.TID 0000.0001)     ;
(PID.TID 0000.0001) PTRACERS_diffK4 = /* Biharmonic Diffusivity */
(PID.TID 0000.0001)                 0.000000000000000E+00
(PID.TID 0000.0001)     ;
(PID.TID 0000.0001) PTRACERS_diffKrNr = /* Vertical Diffusivity */
(PID.TID 0000.0001)    35 @  1.000000000000000E-05              /* K =  1: 35 */
(PID.TID 0000.0001)     ;
(PID.TID 0000.0001) PTRACERS_useGMRedi = /* apply GM-Redi */
(PID.TID 0000.0001)                   F
(PID.TID 0000.0001)     ;
(PID.TID 0000.0001) PTRACERS_useDWNSLP = /* apply DOWN-SLOPE Flow */
(PID.TID 0000.0001)                   F
(PID.TID 0000.0001)     ;
(PID.TID 0000.0001) PTRACERS_useKPP = /* apply KPP scheme */
(PID.TID 0000.0001)                   F
(PID.TID 0000.0001)     ;
(PID.TID 0000.0001) PTRACERS_ref = /* Reference vertical profile */
(PID.TID 0000.0001)    35 @  0.000000000000000E+00              /* K =  1: 35 */
(PID.TID 0000.0001)     ;
(PID.TID 0000.0001) PTRACERS_EvPrRn =/* tracer conc. in Evap. & Rain */
(PID.TID 0000.0001)                 1.234567000000000E+05
(PID.TID 0000.0001)     ;
(PID.TID 0000.0001)  -----------------------------------
(PID.TID 0000.0001)  tracer number :  145
(PID.TID 0000.0001) PTRACERS_names = /* Tracer short name */
(PID.TID 0000.0001)               'Chl48'
(PID.TID 0000.0001)     ;
(PID.TID 0000.0001) PTRACERS_long_names = /* Tracer long name */
(PID.TID 0000.0001)               ''
(PID.TID 0000.0001)     ;
(PID.TID 0000.0001) PTRACERS_ioLabel = /* tracer IO Label */
(PID.TID 0000.0001)               '0T'
(PID.TID 0000.0001)     ;
(PID.TID 0000.0001) PTRACERS_advScheme = /* Advection Scheme */
(PID.TID 0000.0001)                      33
(PID.TID 0000.0001)     ;
(PID.TID 0000.0001) PTRACERS_SOM_Advection = /* tracer uses SOM advection scheme */
(PID.TID 0000.0001)                   F
(PID.TID 0000.0001)     ;
(PID.TID 0000.0001) PTRACERS_ImplVertAdv = /* implicit vert. advection flag */
(PID.TID 0000.0001)                   F
(PID.TID 0000.0001)     ;
(PID.TID 0000.0001) PTRACERS_diffKh = /* Laplacian Diffusivity */
(PID.TID 0000.0001)                 0.000000000000000E+00
(PID.TID 0000.0001)     ;
(PID.TID 0000.0001) PTRACERS_diffK4 = /* Biharmonic Diffusivity */
(PID.TID 0000.0001)                 0.000000000000000E+00
(PID.TID 0000.0001)     ;
(PID.TID 0000.0001) PTRACERS_diffKrNr = /* Vertical Diffusivity */
(PID.TID 0000.0001)    35 @  1.000000000000000E-05              /* K =  1: 35 */
(PID.TID 0000.0001)     ;
(PID.TID 0000.0001) PTRACERS_useGMRedi = /* apply GM-Redi */
(PID.TID 0000.0001)                   F
(PID.TID 0000.0001)     ;
(PID.TID 0000.0001) PTRACERS_useDWNSLP = /* apply DOWN-SLOPE Flow */
(PID.TID 0000.0001)                   F
(PID.TID 0000.0001)     ;
(PID.TID 0000.0001) PTRACERS_useKPP = /* apply KPP scheme */
(PID.TID 0000.0001)                   F
(PID.TID 0000.0001)     ;
(PID.TID 0000.0001) PTRACERS_ref = /* Reference vertical profile */
(PID.TID 0000.0001)    35 @  0.000000000000000E+00              /* K =  1: 35 */
(PID.TID 0000.0001)     ;
(PID.TID 0000.0001) PTRACERS_EvPrRn =/* tracer conc. in Evap. & Rain */
(PID.TID 0000.0001)                 1.234567000000000E+05
(PID.TID 0000.0001)     ;
(PID.TID 0000.0001)  -----------------------------------
(PID.TID 0000.0001)  tracer number :  146
(PID.TID 0000.0001) PTRACERS_names = /* Tracer short name */
(PID.TID 0000.0001)               'Chl49'
(PID.TID 0000.0001)     ;
(PID.TID 0000.0001) PTRACERS_long_names = /* Tracer long name */
(PID.TID 0000.0001)               ''
(PID.TID 0000.0001)     ;
(PID.TID 0000.0001) PTRACERS_ioLabel = /* tracer IO Label */
(PID.TID 0000.0001)               '0U'
(PID.TID 0000.0001)     ;
(PID.TID 0000.0001) PTRACERS_advScheme = /* Advection Scheme */
(PID.TID 0000.0001)                      33
(PID.TID 0000.0001)     ;
(PID.TID 0000.0001) PTRACERS_SOM_Advection = /* tracer uses SOM advection scheme */
(PID.TID 0000.0001)                   F
(PID.TID 0000.0001)     ;
(PID.TID 0000.0001) PTRACERS_ImplVertAdv = /* implicit vert. advection flag */
(PID.TID 0000.0001)                   F
(PID.TID 0000.0001)     ;
(PID.TID 0000.0001) PTRACERS_diffKh = /* Laplacian Diffusivity */
(PID.TID 0000.0001)                 0.000000000000000E+00
(PID.TID 0000.0001)     ;
(PID.TID 0000.0001) PTRACERS_diffK4 = /* Biharmonic Diffusivity */
(PID.TID 0000.0001)                 0.000000000000000E+00
(PID.TID 0000.0001)     ;
(PID.TID 0000.0001) PTRACERS_diffKrNr = /* Vertical Diffusivity */
(PID.TID 0000.0001)    35 @  1.000000000000000E-05              /* K =  1: 35 */
(PID.TID 0000.0001)     ;
(PID.TID 0000.0001) PTRACERS_useGMRedi = /* apply GM-Redi */
(PID.TID 0000.0001)                   F
(PID.TID 0000.0001)     ;
(PID.TID 0000.0001) PTRACERS_useDWNSLP = /* apply DOWN-SLOPE Flow */
(PID.TID 0000.0001)                   F
(PID.TID 0000.0001)     ;
(PID.TID 0000.0001) PTRACERS_useKPP = /* apply KPP scheme */
(PID.TID 0000.0001)                   F
(PID.TID 0000.0001)     ;
(PID.TID 0000.0001) PTRACERS_ref = /* Reference vertical profile */
(PID.TID 0000.0001)    35 @  0.000000000000000E+00              /* K =  1: 35 */
(PID.TID 0000.0001)     ;
(PID.TID 0000.0001) PTRACERS_EvPrRn =/* tracer conc. in Evap. & Rain */
(PID.TID 0000.0001)                 1.234567000000000E+05
(PID.TID 0000.0001)     ;
(PID.TID 0000.0001)  -----------------------------------
(PID.TID 0000.0001)  tracer number :  147
(PID.TID 0000.0001) PTRACERS_names = /* Tracer short name */
(PID.TID 0000.0001)               'Chl50'
(PID.TID 0000.0001)     ;
(PID.TID 0000.0001) PTRACERS_long_names = /* Tracer long name */
(PID.TID 0000.0001)               ''
(PID.TID 0000.0001)     ;
(PID.TID 0000.0001) PTRACERS_ioLabel = /* tracer IO Label */
(PID.TID 0000.0001)               '0V'
(PID.TID 0000.0001)     ;
(PID.TID 0000.0001) PTRACERS_advScheme = /* Advection Scheme */
(PID.TID 0000.0001)                      33
(PID.TID 0000.0001)     ;
(PID.TID 0000.0001) PTRACERS_SOM_Advection = /* tracer uses SOM advection scheme */
(PID.TID 0000.0001)                   F
(PID.TID 0000.0001)     ;
(PID.TID 0000.0001) PTRACERS_ImplVertAdv = /* implicit vert. advection flag */
(PID.TID 0000.0001)                   F
(PID.TID 0000.0001)     ;
(PID.TID 0000.0001) PTRACERS_diffKh = /* Laplacian Diffusivity */
(PID.TID 0000.0001)                 0.000000000000000E+00
(PID.TID 0000.0001)     ;
(PID.TID 0000.0001) PTRACERS_diffK4 = /* Biharmonic Diffusivity */
(PID.TID 0000.0001)                 0.000000000000000E+00
(PID.TID 0000.0001)     ;
(PID.TID 0000.0001) PTRACERS_diffKrNr = /* Vertical Diffusivity */
(PID.TID 0000.0001)    35 @  1.000000000000000E-05              /* K =  1: 35 */
(PID.TID 0000.0001)     ;
(PID.TID 0000.0001) PTRACERS_useGMRedi = /* apply GM-Redi */
(PID.TID 0000.0001)                   F
(PID.TID 0000.0001)     ;
(PID.TID 0000.0001) PTRACERS_useDWNSLP = /* apply DOWN-SLOPE Flow */
(PID.TID 0000.0001)                   F
(PID.TID 0000.0001)     ;
(PID.TID 0000.0001) PTRACERS_useKPP = /* apply KPP scheme */
(PID.TID 0000.0001)                   F
(PID.TID 0000.0001)     ;
(PID.TID 0000.0001) PTRACERS_ref = /* Reference vertical profile */
(PID.TID 0000.0001)    35 @  0.000000000000000E+00              /* K =  1: 35 */
(PID.TID 0000.0001)     ;
(PID.TID 0000.0001) PTRACERS_EvPrRn =/* tracer conc. in Evap. & Rain */
(PID.TID 0000.0001)                 1.234567000000000E+05
(PID.TID 0000.0001)     ;
(PID.TID 0000.0001)  -----------------------------------
(PID.TID 0000.0001)  tracer number :  148
(PID.TID 0000.0001) PTRACERS_names = /* Tracer short name */
(PID.TID 0000.0001)               'Chl51'
(PID.TID 0000.0001)     ;
(PID.TID 0000.0001) PTRACERS_long_names = /* Tracer long name */
(PID.TID 0000.0001)               ''
(PID.TID 0000.0001)     ;
(PID.TID 0000.0001) PTRACERS_ioLabel = /* tracer IO Label */
(PID.TID 0000.0001)               '0W'
(PID.TID 0000.0001)     ;
(PID.TID 0000.0001) PTRACERS_advScheme = /* Advection Scheme */
(PID.TID 0000.0001)                      33
(PID.TID 0000.0001)     ;
(PID.TID 0000.0001) PTRACERS_SOM_Advection = /* tracer uses SOM advection scheme */
(PID.TID 0000.0001)                   F
(PID.TID 0000.0001)     ;
(PID.TID 0000.0001) PTRACERS_ImplVertAdv = /* implicit vert. advection flag */
(PID.TID 0000.0001)                   F
(PID.TID 0000.0001)     ;
(PID.TID 0000.0001) PTRACERS_diffKh = /* Laplacian Diffusivity */
(PID.TID 0000.0001)                 0.000000000000000E+00
(PID.TID 0000.0001)     ;
(PID.TID 0000.0001) PTRACERS_diffK4 = /* Biharmonic Diffusivity */
(PID.TID 0000.0001)                 0.000000000000000E+00
(PID.TID 0000.0001)     ;
(PID.TID 0000.0001) PTRACERS_diffKrNr = /* Vertical Diffusivity */
(PID.TID 0000.0001)    35 @  1.000000000000000E-05              /* K =  1: 35 */
(PID.TID 0000.0001)     ;
(PID.TID 0000.0001) PTRACERS_useGMRedi = /* apply GM-Redi */
(PID.TID 0000.0001)                   F
(PID.TID 0000.0001)     ;
(PID.TID 0000.0001) PTRACERS_useDWNSLP = /* apply DOWN-SLOPE Flow */
(PID.TID 0000.0001)                   F
(PID.TID 0000.0001)     ;
(PID.TID 0000.0001) PTRACERS_useKPP = /* apply KPP scheme */
(PID.TID 0000.0001)                   F
(PID.TID 0000.0001)     ;
(PID.TID 0000.0001) PTRACERS_ref = /* Reference vertical profile */
(PID.TID 0000.0001)    35 @  0.000000000000000E+00              /* K =  1: 35 */
(PID.TID 0000.0001)     ;
(PID.TID 0000.0001) PTRACERS_EvPrRn =/* tracer conc. in Evap. & Rain */
(PID.TID 0000.0001)                 1.234567000000000E+05
(PID.TID 0000.0001)     ;
(PID.TID 0000.0001)  -----------------------------------
(PID.TID 0000.0001)  tracer number :  149
(PID.TID 0000.0001) PTRACERS_names = /* Tracer short name */
(PID.TID 0000.0001)               'Chl52'
(PID.TID 0000.0001)     ;
(PID.TID 0000.0001) PTRACERS_long_names = /* Tracer long name */
(PID.TID 0000.0001)               ''
(PID.TID 0000.0001)     ;
(PID.TID 0000.0001) PTRACERS_ioLabel = /* tracer IO Label */
(PID.TID 0000.0001)               '0X'
(PID.TID 0000.0001)     ;
(PID.TID 0000.0001) PTRACERS_advScheme = /* Advection Scheme */
(PID.TID 0000.0001)                      33
(PID.TID 0000.0001)     ;
(PID.TID 0000.0001) PTRACERS_SOM_Advection = /* tracer uses SOM advection scheme */
(PID.TID 0000.0001)                   F
(PID.TID 0000.0001)     ;
(PID.TID 0000.0001) PTRACERS_ImplVertAdv = /* implicit vert. advection flag */
(PID.TID 0000.0001)                   F
(PID.TID 0000.0001)     ;
(PID.TID 0000.0001) PTRACERS_diffKh = /* Laplacian Diffusivity */
(PID.TID 0000.0001)                 0.000000000000000E+00
(PID.TID 0000.0001)     ;
(PID.TID 0000.0001) PTRACERS_diffK4 = /* Biharmonic Diffusivity */
(PID.TID 0000.0001)                 0.000000000000000E+00
(PID.TID 0000.0001)     ;
(PID.TID 0000.0001) PTRACERS_diffKrNr = /* Vertical Diffusivity */
(PID.TID 0000.0001)    35 @  1.000000000000000E-05              /* K =  1: 35 */
(PID.TID 0000.0001)     ;
(PID.TID 0000.0001) PTRACERS_useGMRedi = /* apply GM-Redi */
(PID.TID 0000.0001)                   F
(PID.TID 0000.0001)     ;
(PID.TID 0000.0001) PTRACERS_useDWNSLP = /* apply DOWN-SLOPE Flow */
(PID.TID 0000.0001)                   F
(PID.TID 0000.0001)     ;
(PID.TID 0000.0001) PTRACERS_useKPP = /* apply KPP scheme */
(PID.TID 0000.0001)                   F
(PID.TID 0000.0001)     ;
(PID.TID 0000.0001) PTRACERS_ref = /* Reference vertical profile */
(PID.TID 0000.0001)    35 @  0.000000000000000E+00              /* K =  1: 35 */
(PID.TID 0000.0001)     ;
(PID.TID 0000.0001) PTRACERS_EvPrRn =/* tracer conc. in Evap. & Rain */
(PID.TID 0000.0001)                 1.234567000000000E+05
(PID.TID 0000.0001)     ;
(PID.TID 0000.0001)  -----------------------------------
(PID.TID 0000.0001)  tracer number :  150
(PID.TID 0000.0001) PTRACERS_names = /* Tracer short name */
(PID.TID 0000.0001)               'Chl53'
(PID.TID 0000.0001)     ;
(PID.TID 0000.0001) PTRACERS_long_names = /* Tracer long name */
(PID.TID 0000.0001)               ''
(PID.TID 0000.0001)     ;
(PID.TID 0000.0001) PTRACERS_ioLabel = /* tracer IO Label */
(PID.TID 0000.0001)               '0Y'
(PID.TID 0000.0001)     ;
(PID.TID 0000.0001) PTRACERS_advScheme = /* Advection Scheme */
(PID.TID 0000.0001)                      33
(PID.TID 0000.0001)     ;
(PID.TID 0000.0001) PTRACERS_SOM_Advection = /* tracer uses SOM advection scheme */
(PID.TID 0000.0001)                   F
(PID.TID 0000.0001)     ;
(PID.TID 0000.0001) PTRACERS_ImplVertAdv = /* implicit vert. advection flag */
(PID.TID 0000.0001)                   F
(PID.TID 0000.0001)     ;
(PID.TID 0000.0001) PTRACERS_diffKh = /* Laplacian Diffusivity */
(PID.TID 0000.0001)                 0.000000000000000E+00
(PID.TID 0000.0001)     ;
(PID.TID 0000.0001) PTRACERS_diffK4 = /* Biharmonic Diffusivity */
(PID.TID 0000.0001)                 0.000000000000000E+00
(PID.TID 0000.0001)     ;
(PID.TID 0000.0001) PTRACERS_diffKrNr = /* Vertical Diffusivity */
(PID.TID 0000.0001)    35 @  1.000000000000000E-05              /* K =  1: 35 */
(PID.TID 0000.0001)     ;
(PID.TID 0000.0001) PTRACERS_useGMRedi = /* apply GM-Redi */
(PID.TID 0000.0001)                   F
(PID.TID 0000.0001)     ;
(PID.TID 0000.0001) PTRACERS_useDWNSLP = /* apply DOWN-SLOPE Flow */
(PID.TID 0000.0001)                   F
(PID.TID 0000.0001)     ;
(PID.TID 0000.0001) PTRACERS_useKPP = /* apply KPP scheme */
(PID.TID 0000.0001)                   F
(PID.TID 0000.0001)     ;
(PID.TID 0000.0001) PTRACERS_ref = /* Reference vertical profile */
(PID.TID 0000.0001)    35 @  0.000000000000000E+00              /* K =  1: 35 */
(PID.TID 0000.0001)     ;
(PID.TID 0000.0001) PTRACERS_EvPrRn =/* tracer conc. in Evap. & Rain */
(PID.TID 0000.0001)                 1.234567000000000E+05
(PID.TID 0000.0001)     ;
(PID.TID 0000.0001)  -----------------------------------
(PID.TID 0000.0001)  tracer number :  151
(PID.TID 0000.0001) PTRACERS_names = /* Tracer short name */
(PID.TID 0000.0001)               'Chl54'
(PID.TID 0000.0001)     ;
(PID.TID 0000.0001) PTRACERS_long_names = /* Tracer long name */
(PID.TID 0000.0001)               ''
(PID.TID 0000.0001)     ;
(PID.TID 0000.0001) PTRACERS_ioLabel = /* tracer IO Label */
(PID.TID 0000.0001)               '0Z'
(PID.TID 0000.0001)     ;
(PID.TID 0000.0001) PTRACERS_advScheme = /* Advection Scheme */
(PID.TID 0000.0001)                      33
(PID.TID 0000.0001)     ;
(PID.TID 0000.0001) PTRACERS_SOM_Advection = /* tracer uses SOM advection scheme */
(PID.TID 0000.0001)                   F
(PID.TID 0000.0001)     ;
(PID.TID 0000.0001) PTRACERS_ImplVertAdv = /* implicit vert. advection flag */
(PID.TID 0000.0001)                   F
(PID.TID 0000.0001)     ;
(PID.TID 0000.0001) PTRACERS_diffKh = /* Laplacian Diffusivity */
(PID.TID 0000.0001)                 0.000000000000000E+00
(PID.TID 0000.0001)     ;
(PID.TID 0000.0001) PTRACERS_diffK4 = /* Biharmonic Diffusivity */
(PID.TID 0000.0001)                 0.000000000000000E+00
(PID.TID 0000.0001)     ;
(PID.TID 0000.0001) PTRACERS_diffKrNr = /* Vertical Diffusivity */
(PID.TID 0000.0001)    35 @  1.000000000000000E-05              /* K =  1: 35 */
(PID.TID 0000.0001)     ;
(PID.TID 0000.0001) PTRACERS_useGMRedi = /* apply GM-Redi */
(PID.TID 0000.0001)                   F
(PID.TID 0000.0001)     ;
(PID.TID 0000.0001) PTRACERS_useDWNSLP = /* apply DOWN-SLOPE Flow */
(PID.TID 0000.0001)                   F
(PID.TID 0000.0001)     ;
(PID.TID 0000.0001) PTRACERS_useKPP = /* apply KPP scheme */
(PID.TID 0000.0001)                   F
(PID.TID 0000.0001)     ;
(PID.TID 0000.0001) PTRACERS_ref = /* Reference vertical profile */
(PID.TID 0000.0001)    35 @  0.000000000000000E+00              /* K =  1: 35 */
(PID.TID 0000.0001)     ;
(PID.TID 0000.0001) PTRACERS_EvPrRn =/* tracer conc. in Evap. & Rain */
(PID.TID 0000.0001)                 1.234567000000000E+05
(PID.TID 0000.0001)     ;
(PID.TID 0000.0001)  -----------------------------------
(PID.TID 0000.0001)  tracer number :  152
(PID.TID 0000.0001) PTRACERS_names = /* Tracer short name */
(PID.TID 0000.0001)               'Chl55'
(PID.TID 0000.0001)     ;
(PID.TID 0000.0001) PTRACERS_long_names = /* Tracer long name */
(PID.TID 0000.0001)               ''
(PID.TID 0000.0001)     ;
(PID.TID 0000.0001) PTRACERS_ioLabel = /* tracer IO Label */
(PID.TID 0000.0001)               '1a'
(PID.TID 0000.0001)     ;
(PID.TID 0000.0001) PTRACERS_advScheme = /* Advection Scheme */
(PID.TID 0000.0001)                      33
(PID.TID 0000.0001)     ;
(PID.TID 0000.0001) PTRACERS_SOM_Advection = /* tracer uses SOM advection scheme */
(PID.TID 0000.0001)                   F
(PID.TID 0000.0001)     ;
(PID.TID 0000.0001) PTRACERS_ImplVertAdv = /* implicit vert. advection flag */
(PID.TID 0000.0001)                   F
(PID.TID 0000.0001)     ;
(PID.TID 0000.0001) PTRACERS_diffKh = /* Laplacian Diffusivity */
(PID.TID 0000.0001)                 0.000000000000000E+00
(PID.TID 0000.0001)     ;
(PID.TID 0000.0001) PTRACERS_diffK4 = /* Biharmonic Diffusivity */
(PID.TID 0000.0001)                 0.000000000000000E+00
(PID.TID 0000.0001)     ;
(PID.TID 0000.0001) PTRACERS_diffKrNr = /* Vertical Diffusivity */
(PID.TID 0000.0001)    35 @  1.000000000000000E-05              /* K =  1: 35 */
(PID.TID 0000.0001)     ;
(PID.TID 0000.0001) PTRACERS_useGMRedi = /* apply GM-Redi */
(PID.TID 0000.0001)                   F
(PID.TID 0000.0001)     ;
(PID.TID 0000.0001) PTRACERS_useDWNSLP = /* apply DOWN-SLOPE Flow */
(PID.TID 0000.0001)                   F
(PID.TID 0000.0001)     ;
(PID.TID 0000.0001) PTRACERS_useKPP = /* apply KPP scheme */
(PID.TID 0000.0001)                   F
(PID.TID 0000.0001)     ;
(PID.TID 0000.0001) PTRACERS_ref = /* Reference vertical profile */
(PID.TID 0000.0001)    35 @  0.000000000000000E+00              /* K =  1: 35 */
(PID.TID 0000.0001)     ;
(PID.TID 0000.0001) PTRACERS_EvPrRn =/* tracer conc. in Evap. & Rain */
(PID.TID 0000.0001)                 1.234567000000000E+05
(PID.TID 0000.0001)     ;
(PID.TID 0000.0001)  -----------------------------------
(PID.TID 0000.0001)  tracer number :  153
(PID.TID 0000.0001) PTRACERS_names = /* Tracer short name */
(PID.TID 0000.0001)               'Chl56'
(PID.TID 0000.0001)     ;
(PID.TID 0000.0001) PTRACERS_long_names = /* Tracer long name */
(PID.TID 0000.0001)               ''
(PID.TID 0000.0001)     ;
(PID.TID 0000.0001) PTRACERS_ioLabel = /* tracer IO Label */
(PID.TID 0000.0001)               '1b'
(PID.TID 0000.0001)     ;
(PID.TID 0000.0001) PTRACERS_advScheme = /* Advection Scheme */
(PID.TID 0000.0001)                      33
(PID.TID 0000.0001)     ;
(PID.TID 0000.0001) PTRACERS_SOM_Advection = /* tracer uses SOM advection scheme */
(PID.TID 0000.0001)                   F
(PID.TID 0000.0001)     ;
(PID.TID 0000.0001) PTRACERS_ImplVertAdv = /* implicit vert. advection flag */
(PID.TID 0000.0001)                   F
(PID.TID 0000.0001)     ;
(PID.TID 0000.0001) PTRACERS_diffKh = /* Laplacian Diffusivity */
(PID.TID 0000.0001)                 0.000000000000000E+00
(PID.TID 0000.0001)     ;
(PID.TID 0000.0001) PTRACERS_diffK4 = /* Biharmonic Diffusivity */
(PID.TID 0000.0001)                 0.000000000000000E+00
(PID.TID 0000.0001)     ;
(PID.TID 0000.0001) PTRACERS_diffKrNr = /* Vertical Diffusivity */
(PID.TID 0000.0001)    35 @  1.000000000000000E-05              /* K =  1: 35 */
(PID.TID 0000.0001)     ;
(PID.TID 0000.0001) PTRACERS_useGMRedi = /* apply GM-Redi */
(PID.TID 0000.0001)                   F
(PID.TID 0000.0001)     ;
(PID.TID 0000.0001) PTRACERS_useDWNSLP = /* apply DOWN-SLOPE Flow */
(PID.TID 0000.0001)                   F
(PID.TID 0000.0001)     ;
(PID.TID 0000.0001) PTRACERS_useKPP = /* apply KPP scheme */
(PID.TID 0000.0001)                   F
(PID.TID 0000.0001)     ;
(PID.TID 0000.0001) PTRACERS_ref = /* Reference vertical profile */
(PID.TID 0000.0001)    35 @  0.000000000000000E+00              /* K =  1: 35 */
(PID.TID 0000.0001)     ;
(PID.TID 0000.0001) PTRACERS_EvPrRn =/* tracer conc. in Evap. & Rain */
(PID.TID 0000.0001)                 1.234567000000000E+05
(PID.TID 0000.0001)     ;
(PID.TID 0000.0001)  -----------------------------------
(PID.TID 0000.0001)  tracer number :  154
(PID.TID 0000.0001) PTRACERS_names = /* Tracer short name */
(PID.TID 0000.0001)               'Chl57'
(PID.TID 0000.0001)     ;
(PID.TID 0000.0001) PTRACERS_long_names = /* Tracer long name */
(PID.TID 0000.0001)               ''
(PID.TID 0000.0001)     ;
(PID.TID 0000.0001) PTRACERS_ioLabel = /* tracer IO Label */
(PID.TID 0000.0001)               '1c'
(PID.TID 0000.0001)     ;
(PID.TID 0000.0001) PTRACERS_advScheme = /* Advection Scheme */
(PID.TID 0000.0001)                      33
(PID.TID 0000.0001)     ;
(PID.TID 0000.0001) PTRACERS_SOM_Advection = /* tracer uses SOM advection scheme */
(PID.TID 0000.0001)                   F
(PID.TID 0000.0001)     ;
(PID.TID 0000.0001) PTRACERS_ImplVertAdv = /* implicit vert. advection flag */
(PID.TID 0000.0001)                   F
(PID.TID 0000.0001)     ;
(PID.TID 0000.0001) PTRACERS_diffKh = /* Laplacian Diffusivity */
(PID.TID 0000.0001)                 0.000000000000000E+00
(PID.TID 0000.0001)     ;
(PID.TID 0000.0001) PTRACERS_diffK4 = /* Biharmonic Diffusivity */
(PID.TID 0000.0001)                 0.000000000000000E+00
(PID.TID 0000.0001)     ;
(PID.TID 0000.0001) PTRACERS_diffKrNr = /* Vertical Diffusivity */
(PID.TID 0000.0001)    35 @  1.000000000000000E-05              /* K =  1: 35 */
(PID.TID 0000.0001)     ;
(PID.TID 0000.0001) PTRACERS_useGMRedi = /* apply GM-Redi */
(PID.TID 0000.0001)                   F
(PID.TID 0000.0001)     ;
(PID.TID 0000.0001) PTRACERS_useDWNSLP = /* apply DOWN-SLOPE Flow */
(PID.TID 0000.0001)                   F
(PID.TID 0000.0001)     ;
(PID.TID 0000.0001) PTRACERS_useKPP = /* apply KPP scheme */
(PID.TID 0000.0001)                   F
(PID.TID 0000.0001)     ;
(PID.TID 0000.0001) PTRACERS_ref = /* Reference vertical profile */
(PID.TID 0000.0001)    35 @  0.000000000000000E+00              /* K =  1: 35 */
(PID.TID 0000.0001)     ;
(PID.TID 0000.0001) PTRACERS_EvPrRn =/* tracer conc. in Evap. & Rain */
(PID.TID 0000.0001)                 1.234567000000000E+05
(PID.TID 0000.0001)     ;
(PID.TID 0000.0001)  -----------------------------------
(PID.TID 0000.0001)  tracer number :  155
(PID.TID 0000.0001) PTRACERS_names = /* Tracer short name */
(PID.TID 0000.0001)               'Chl58'
(PID.TID 0000.0001)     ;
(PID.TID 0000.0001) PTRACERS_long_names = /* Tracer long name */
(PID.TID 0000.0001)               ''
(PID.TID 0000.0001)     ;
(PID.TID 0000.0001) PTRACERS_ioLabel = /* tracer IO Label */
(PID.TID 0000.0001)               '1d'
(PID.TID 0000.0001)     ;
(PID.TID 0000.0001) PTRACERS_advScheme = /* Advection Scheme */
(PID.TID 0000.0001)                      33
(PID.TID 0000.0001)     ;
(PID.TID 0000.0001) PTRACERS_SOM_Advection = /* tracer uses SOM advection scheme */
(PID.TID 0000.0001)                   F
(PID.TID 0000.0001)     ;
(PID.TID 0000.0001) PTRACERS_ImplVertAdv = /* implicit vert. advection flag */
(PID.TID 0000.0001)                   F
(PID.TID 0000.0001)     ;
(PID.TID 0000.0001) PTRACERS_diffKh = /* Laplacian Diffusivity */
(PID.TID 0000.0001)                 0.000000000000000E+00
(PID.TID 0000.0001)     ;
(PID.TID 0000.0001) PTRACERS_diffK4 = /* Biharmonic Diffusivity */
(PID.TID 0000.0001)                 0.000000000000000E+00
(PID.TID 0000.0001)     ;
(PID.TID 0000.0001) PTRACERS_diffKrNr = /* Vertical Diffusivity */
(PID.TID 0000.0001)    35 @  1.000000000000000E-05              /* K =  1: 35 */
(PID.TID 0000.0001)     ;
(PID.TID 0000.0001) PTRACERS_useGMRedi = /* apply GM-Redi */
(PID.TID 0000.0001)                   F
(PID.TID 0000.0001)     ;
(PID.TID 0000.0001) PTRACERS_useDWNSLP = /* apply DOWN-SLOPE Flow */
(PID.TID 0000.0001)                   F
(PID.TID 0000.0001)     ;
(PID.TID 0000.0001) PTRACERS_useKPP = /* apply KPP scheme */
(PID.TID 0000.0001)                   F
(PID.TID 0000.0001)     ;
(PID.TID 0000.0001) PTRACERS_ref = /* Reference vertical profile */
(PID.TID 0000.0001)    35 @  0.000000000000000E+00              /* K =  1: 35 */
(PID.TID 0000.0001)     ;
(PID.TID 0000.0001) PTRACERS_EvPrRn =/* tracer conc. in Evap. & Rain */
(PID.TID 0000.0001)                 1.234567000000000E+05
(PID.TID 0000.0001)     ;
(PID.TID 0000.0001)  -----------------------------------
(PID.TID 0000.0001)  tracer number :  156
(PID.TID 0000.0001) PTRACERS_names = /* Tracer short name */
(PID.TID 0000.0001)               'Chl59'
(PID.TID 0000.0001)     ;
(PID.TID 0000.0001) PTRACERS_long_names = /* Tracer long name */
(PID.TID 0000.0001)               ''
(PID.TID 0000.0001)     ;
(PID.TID 0000.0001) PTRACERS_ioLabel = /* tracer IO Label */
(PID.TID 0000.0001)               '1e'
(PID.TID 0000.0001)     ;
(PID.TID 0000.0001) PTRACERS_advScheme = /* Advection Scheme */
(PID.TID 0000.0001)                      33
(PID.TID 0000.0001)     ;
(PID.TID 0000.0001) PTRACERS_SOM_Advection = /* tracer uses SOM advection scheme */
(PID.TID 0000.0001)                   F
(PID.TID 0000.0001)     ;
(PID.TID 0000.0001) PTRACERS_ImplVertAdv = /* implicit vert. advection flag */
(PID.TID 0000.0001)                   F
(PID.TID 0000.0001)     ;
(PID.TID 0000.0001) PTRACERS_diffKh = /* Laplacian Diffusivity */
(PID.TID 0000.0001)                 0.000000000000000E+00
(PID.TID 0000.0001)     ;
(PID.TID 0000.0001) PTRACERS_diffK4 = /* Biharmonic Diffusivity */
(PID.TID 0000.0001)                 0.000000000000000E+00
(PID.TID 0000.0001)     ;
(PID.TID 0000.0001) PTRACERS_diffKrNr = /* Vertical Diffusivity */
(PID.TID 0000.0001)    35 @  1.000000000000000E-05              /* K =  1: 35 */
(PID.TID 0000.0001)     ;
(PID.TID 0000.0001) PTRACERS_useGMRedi = /* apply GM-Redi */
(PID.TID 0000.0001)                   F
(PID.TID 0000.0001)     ;
(PID.TID 0000.0001) PTRACERS_useDWNSLP = /* apply DOWN-SLOPE Flow */
(PID.TID 0000.0001)                   F
(PID.TID 0000.0001)     ;
(PID.TID 0000.0001) PTRACERS_useKPP = /* apply KPP scheme */
(PID.TID 0000.0001)                   F
(PID.TID 0000.0001)     ;
(PID.TID 0000.0001) PTRACERS_ref = /* Reference vertical profile */
(PID.TID 0000.0001)    35 @  0.000000000000000E+00              /* K =  1: 35 */
(PID.TID 0000.0001)     ;
(PID.TID 0000.0001) PTRACERS_EvPrRn =/* tracer conc. in Evap. & Rain */
(PID.TID 0000.0001)                 1.234567000000000E+05
(PID.TID 0000.0001)     ;
(PID.TID 0000.0001)  -----------------------------------
(PID.TID 0000.0001)  tracer number :  157
(PID.TID 0000.0001) PTRACERS_names = /* Tracer short name */
(PID.TID 0000.0001)               'Chl60'
(PID.TID 0000.0001)     ;
(PID.TID 0000.0001) PTRACERS_long_names = /* Tracer long name */
(PID.TID 0000.0001)               ''
(PID.TID 0000.0001)     ;
(PID.TID 0000.0001) PTRACERS_ioLabel = /* tracer IO Label */
(PID.TID 0000.0001)               '1f'
(PID.TID 0000.0001)     ;
(PID.TID 0000.0001) PTRACERS_advScheme = /* Advection Scheme */
(PID.TID 0000.0001)                      33
(PID.TID 0000.0001)     ;
(PID.TID 0000.0001) PTRACERS_SOM_Advection = /* tracer uses SOM advection scheme */
(PID.TID 0000.0001)                   F
(PID.TID 0000.0001)     ;
(PID.TID 0000.0001) PTRACERS_ImplVertAdv = /* implicit vert. advection flag */
(PID.TID 0000.0001)                   F
(PID.TID 0000.0001)     ;
(PID.TID 0000.0001) PTRACERS_diffKh = /* Laplacian Diffusivity */
(PID.TID 0000.0001)                 0.000000000000000E+00
(PID.TID 0000.0001)     ;
(PID.TID 0000.0001) PTRACERS_diffK4 = /* Biharmonic Diffusivity */
(PID.TID 0000.0001)                 0.000000000000000E+00
(PID.TID 0000.0001)     ;
(PID.TID 0000.0001) PTRACERS_diffKrNr = /* Vertical Diffusivity */
(PID.TID 0000.0001)    35 @  1.000000000000000E-05              /* K =  1: 35 */
(PID.TID 0000.0001)     ;
(PID.TID 0000.0001) PTRACERS_useGMRedi = /* apply GM-Redi */
(PID.TID 0000.0001)                   F
(PID.TID 0000.0001)     ;
(PID.TID 0000.0001) PTRACERS_useDWNSLP = /* apply DOWN-SLOPE Flow */
(PID.TID 0000.0001)                   F
(PID.TID 0000.0001)     ;
(PID.TID 0000.0001) PTRACERS_useKPP = /* apply KPP scheme */
(PID.TID 0000.0001)                   F
(PID.TID 0000.0001)     ;
(PID.TID 0000.0001) PTRACERS_ref = /* Reference vertical profile */
(PID.TID 0000.0001)    35 @  0.000000000000000E+00              /* K =  1: 35 */
(PID.TID 0000.0001)     ;
(PID.TID 0000.0001) PTRACERS_EvPrRn =/* tracer conc. in Evap. & Rain */
(PID.TID 0000.0001)                 1.234567000000000E+05
(PID.TID 0000.0001)     ;
(PID.TID 0000.0001)  -----------------------------------
(PID.TID 0000.0001)  tracer number :  158
(PID.TID 0000.0001) PTRACERS_names = /* Tracer short name */
(PID.TID 0000.0001)               'Chl61'
(PID.TID 0000.0001)     ;
(PID.TID 0000.0001) PTRACERS_long_names = /* Tracer long name */
(PID.TID 0000.0001)               ''
(PID.TID 0000.0001)     ;
(PID.TID 0000.0001) PTRACERS_ioLabel = /* tracer IO Label */
(PID.TID 0000.0001)               '1g'
(PID.TID 0000.0001)     ;
(PID.TID 0000.0001) PTRACERS_advScheme = /* Advection Scheme */
(PID.TID 0000.0001)                      33
(PID.TID 0000.0001)     ;
(PID.TID 0000.0001) PTRACERS_SOM_Advection = /* tracer uses SOM advection scheme */
(PID.TID 0000.0001)                   F
(PID.TID 0000.0001)     ;
(PID.TID 0000.0001) PTRACERS_ImplVertAdv = /* implicit vert. advection flag */
(PID.TID 0000.0001)                   F
(PID.TID 0000.0001)     ;
(PID.TID 0000.0001) PTRACERS_diffKh = /* Laplacian Diffusivity */
(PID.TID 0000.0001)                 0.000000000000000E+00
(PID.TID 0000.0001)     ;
(PID.TID 0000.0001) PTRACERS_diffK4 = /* Biharmonic Diffusivity */
(PID.TID 0000.0001)                 0.000000000000000E+00
(PID.TID 0000.0001)     ;
(PID.TID 0000.0001) PTRACERS_diffKrNr = /* Vertical Diffusivity */
(PID.TID 0000.0001)    35 @  1.000000000000000E-05              /* K =  1: 35 */
(PID.TID 0000.0001)     ;
(PID.TID 0000.0001) PTRACERS_useGMRedi = /* apply GM-Redi */
(PID.TID 0000.0001)                   F
(PID.TID 0000.0001)     ;
(PID.TID 0000.0001) PTRACERS_useDWNSLP = /* apply DOWN-SLOPE Flow */
(PID.TID 0000.0001)                   F
(PID.TID 0000.0001)     ;
(PID.TID 0000.0001) PTRACERS_useKPP = /* apply KPP scheme */
(PID.TID 0000.0001)                   F
(PID.TID 0000.0001)     ;
(PID.TID 0000.0001) PTRACERS_ref = /* Reference vertical profile */
(PID.TID 0000.0001)    35 @  0.000000000000000E+00              /* K =  1: 35 */
(PID.TID 0000.0001)     ;
(PID.TID 0000.0001) PTRACERS_EvPrRn =/* tracer conc. in Evap. & Rain */
(PID.TID 0000.0001)                 1.234567000000000E+05
(PID.TID 0000.0001)     ;
(PID.TID 0000.0001)  -----------------------------------
(PID.TID 0000.0001)  tracer number :  159
(PID.TID 0000.0001) PTRACERS_names = /* Tracer short name */
(PID.TID 0000.0001)               'Chl62'
(PID.TID 0000.0001)     ;
(PID.TID 0000.0001) PTRACERS_long_names = /* Tracer long name */
(PID.TID 0000.0001)               ''
(PID.TID 0000.0001)     ;
(PID.TID 0000.0001) PTRACERS_ioLabel = /* tracer IO Label */
(PID.TID 0000.0001)               '1h'
(PID.TID 0000.0001)     ;
(PID.TID 0000.0001) PTRACERS_advScheme = /* Advection Scheme */
(PID.TID 0000.0001)                      33
(PID.TID 0000.0001)     ;
(PID.TID 0000.0001) PTRACERS_SOM_Advection = /* tracer uses SOM advection scheme */
(PID.TID 0000.0001)                   F
(PID.TID 0000.0001)     ;
(PID.TID 0000.0001) PTRACERS_ImplVertAdv = /* implicit vert. advection flag */
(PID.TID 0000.0001)                   F
(PID.TID 0000.0001)     ;
(PID.TID 0000.0001) PTRACERS_diffKh = /* Laplacian Diffusivity */
(PID.TID 0000.0001)                 0.000000000000000E+00
(PID.TID 0000.0001)     ;
(PID.TID 0000.0001) PTRACERS_diffK4 = /* Biharmonic Diffusivity */
(PID.TID 0000.0001)                 0.000000000000000E+00
(PID.TID 0000.0001)     ;
(PID.TID 0000.0001) PTRACERS_diffKrNr = /* Vertical Diffusivity */
(PID.TID 0000.0001)    35 @  1.000000000000000E-05              /* K =  1: 35 */
(PID.TID 0000.0001)     ;
(PID.TID 0000.0001) PTRACERS_useGMRedi = /* apply GM-Redi */
(PID.TID 0000.0001)                   F
(PID.TID 0000.0001)     ;
(PID.TID 0000.0001) PTRACERS_useDWNSLP = /* apply DOWN-SLOPE Flow */
(PID.TID 0000.0001)                   F
(PID.TID 0000.0001)     ;
(PID.TID 0000.0001) PTRACERS_useKPP = /* apply KPP scheme */
(PID.TID 0000.0001)                   F
(PID.TID 0000.0001)     ;
(PID.TID 0000.0001) PTRACERS_ref = /* Reference vertical profile */
(PID.TID 0000.0001)    35 @  0.000000000000000E+00              /* K =  1: 35 */
(PID.TID 0000.0001)     ;
(PID.TID 0000.0001) PTRACERS_EvPrRn =/* tracer conc. in Evap. & Rain */
(PID.TID 0000.0001)                 1.234567000000000E+05
(PID.TID 0000.0001)     ;
(PID.TID 0000.0001)  -----------------------------------
(PID.TID 0000.0001)  tracer number :  160
(PID.TID 0000.0001) PTRACERS_names = /* Tracer short name */
(PID.TID 0000.0001)               'Chl63'
(PID.TID 0000.0001)     ;
(PID.TID 0000.0001) PTRACERS_long_names = /* Tracer long name */
(PID.TID 0000.0001)               ''
(PID.TID 0000.0001)     ;
(PID.TID 0000.0001) PTRACERS_ioLabel = /* tracer IO Label */
(PID.TID 0000.0001)               '1i'
(PID.TID 0000.0001)     ;
(PID.TID 0000.0001) PTRACERS_advScheme = /* Advection Scheme */
(PID.TID 0000.0001)                      33
(PID.TID 0000.0001)     ;
(PID.TID 0000.0001) PTRACERS_SOM_Advection = /* tracer uses SOM advection scheme */
(PID.TID 0000.0001)                   F
(PID.TID 0000.0001)     ;
(PID.TID 0000.0001) PTRACERS_ImplVertAdv = /* implicit vert. advection flag */
(PID.TID 0000.0001)                   F
(PID.TID 0000.0001)     ;
(PID.TID 0000.0001) PTRACERS_diffKh = /* Laplacian Diffusivity */
(PID.TID 0000.0001)                 0.000000000000000E+00
(PID.TID 0000.0001)     ;
(PID.TID 0000.0001) PTRACERS_diffK4 = /* Biharmonic Diffusivity */
(PID.TID 0000.0001)                 0.000000000000000E+00
(PID.TID 0000.0001)     ;
(PID.TID 0000.0001) PTRACERS_diffKrNr = /* Vertical Diffusivity */
(PID.TID 0000.0001)    35 @  1.000000000000000E-05              /* K =  1: 35 */
(PID.TID 0000.0001)     ;
(PID.TID 0000.0001) PTRACERS_useGMRedi = /* apply GM-Redi */
(PID.TID 0000.0001)                   F
(PID.TID 0000.0001)     ;
(PID.TID 0000.0001) PTRACERS_useDWNSLP = /* apply DOWN-SLOPE Flow */
(PID.TID 0000.0001)                   F
(PID.TID 0000.0001)     ;
(PID.TID 0000.0001) PTRACERS_useKPP = /* apply KPP scheme */
(PID.TID 0000.0001)                   F
(PID.TID 0000.0001)     ;
(PID.TID 0000.0001) PTRACERS_ref = /* Reference vertical profile */
(PID.TID 0000.0001)    35 @  0.000000000000000E+00              /* K =  1: 35 */
(PID.TID 0000.0001)     ;
(PID.TID 0000.0001) PTRACERS_EvPrRn =/* tracer conc. in Evap. & Rain */
(PID.TID 0000.0001)                 1.234567000000000E+05
(PID.TID 0000.0001)     ;
(PID.TID 0000.0001)  -----------------------------------
(PID.TID 0000.0001)  tracer number :  161
(PID.TID 0000.0001) PTRACERS_names = /* Tracer short name */
(PID.TID 0000.0001)               'Chl64'
(PID.TID 0000.0001)     ;
(PID.TID 0000.0001) PTRACERS_long_names = /* Tracer long name */
(PID.TID 0000.0001)               ''
(PID.TID 0000.0001)     ;
(PID.TID 0000.0001) PTRACERS_ioLabel = /* tracer IO Label */
(PID.TID 0000.0001)               '1j'
(PID.TID 0000.0001)     ;
(PID.TID 0000.0001) PTRACERS_advScheme = /* Advection Scheme */
(PID.TID 0000.0001)                      33
(PID.TID 0000.0001)     ;
(PID.TID 0000.0001) PTRACERS_SOM_Advection = /* tracer uses SOM advection scheme */
(PID.TID 0000.0001)                   F
(PID.TID 0000.0001)     ;
(PID.TID 0000.0001) PTRACERS_ImplVertAdv = /* implicit vert. advection flag */
(PID.TID 0000.0001)                   F
(PID.TID 0000.0001)     ;
(PID.TID 0000.0001) PTRACERS_diffKh = /* Laplacian Diffusivity */
(PID.TID 0000.0001)                 0.000000000000000E+00
(PID.TID 0000.0001)     ;
(PID.TID 0000.0001) PTRACERS_diffK4 = /* Biharmonic Diffusivity */
(PID.TID 0000.0001)                 0.000000000000000E+00
(PID.TID 0000.0001)     ;
(PID.TID 0000.0001) PTRACERS_diffKrNr = /* Vertical Diffusivity */
(PID.TID 0000.0001)    35 @  1.000000000000000E-05              /* K =  1: 35 */
(PID.TID 0000.0001)     ;
(PID.TID 0000.0001) PTRACERS_useGMRedi = /* apply GM-Redi */
(PID.TID 0000.0001)                   F
(PID.TID 0000.0001)     ;
(PID.TID 0000.0001) PTRACERS_useDWNSLP = /* apply DOWN-SLOPE Flow */
(PID.TID 0000.0001)                   F
(PID.TID 0000.0001)     ;
(PID.TID 0000.0001) PTRACERS_useKPP = /* apply KPP scheme */
(PID.TID 0000.0001)                   F
(PID.TID 0000.0001)     ;
(PID.TID 0000.0001) PTRACERS_ref = /* Reference vertical profile */
(PID.TID 0000.0001)    35 @  0.000000000000000E+00              /* K =  1: 35 */
(PID.TID 0000.0001)     ;
(PID.TID 0000.0001) PTRACERS_EvPrRn =/* tracer conc. in Evap. & Rain */
(PID.TID 0000.0001)                 1.234567000000000E+05
(PID.TID 0000.0001)     ;
(PID.TID 0000.0001)  -----------------------------------
(PID.TID 0000.0001)  tracer number :  162
(PID.TID 0000.0001) PTRACERS_names = /* Tracer short name */
(PID.TID 0000.0001)               'Chl65'
(PID.TID 0000.0001)     ;
(PID.TID 0000.0001) PTRACERS_long_names = /* Tracer long name */
(PID.TID 0000.0001)               ''
(PID.TID 0000.0001)     ;
(PID.TID 0000.0001) PTRACERS_ioLabel = /* tracer IO Label */
(PID.TID 0000.0001)               '1k'
(PID.TID 0000.0001)     ;
(PID.TID 0000.0001) PTRACERS_advScheme = /* Advection Scheme */
(PID.TID 0000.0001)                      33
(PID.TID 0000.0001)     ;
(PID.TID 0000.0001) PTRACERS_SOM_Advection = /* tracer uses SOM advection scheme */
(PID.TID 0000.0001)                   F
(PID.TID 0000.0001)     ;
(PID.TID 0000.0001) PTRACERS_ImplVertAdv = /* implicit vert. advection flag */
(PID.TID 0000.0001)                   F
(PID.TID 0000.0001)     ;
(PID.TID 0000.0001) PTRACERS_diffKh = /* Laplacian Diffusivity */
(PID.TID 0000.0001)                 0.000000000000000E+00
(PID.TID 0000.0001)     ;
(PID.TID 0000.0001) PTRACERS_diffK4 = /* Biharmonic Diffusivity */
(PID.TID 0000.0001)                 0.000000000000000E+00
(PID.TID 0000.0001)     ;
(PID.TID 0000.0001) PTRACERS_diffKrNr = /* Vertical Diffusivity */
(PID.TID 0000.0001)    35 @  1.000000000000000E-05              /* K =  1: 35 */
(PID.TID 0000.0001)     ;
(PID.TID 0000.0001) PTRACERS_useGMRedi = /* apply GM-Redi */
(PID.TID 0000.0001)                   F
(PID.TID 0000.0001)     ;
(PID.TID 0000.0001) PTRACERS_useDWNSLP = /* apply DOWN-SLOPE Flow */
(PID.TID 0000.0001)                   F
(PID.TID 0000.0001)     ;
(PID.TID 0000.0001) PTRACERS_useKPP = /* apply KPP scheme */
(PID.TID 0000.0001)                   F
(PID.TID 0000.0001)     ;
(PID.TID 0000.0001) PTRACERS_ref = /* Reference vertical profile */
(PID.TID 0000.0001)    35 @  0.000000000000000E+00              /* K =  1: 35 */
(PID.TID 0000.0001)     ;
(PID.TID 0000.0001) PTRACERS_EvPrRn =/* tracer conc. in Evap. & Rain */
(PID.TID 0000.0001)                 1.234567000000000E+05
(PID.TID 0000.0001)     ;
(PID.TID 0000.0001)  -----------------------------------
(PID.TID 0000.0001)  tracer number :  163
(PID.TID 0000.0001) PTRACERS_names = /* Tracer short name */
(PID.TID 0000.0001)               'Chl66'
(PID.TID 0000.0001)     ;
(PID.TID 0000.0001) PTRACERS_long_names = /* Tracer long name */
(PID.TID 0000.0001)               ''
(PID.TID 0000.0001)     ;
(PID.TID 0000.0001) PTRACERS_ioLabel = /* tracer IO Label */
(PID.TID 0000.0001)               '1l'
(PID.TID 0000.0001)     ;
(PID.TID 0000.0001) PTRACERS_advScheme = /* Advection Scheme */
(PID.TID 0000.0001)                      33
(PID.TID 0000.0001)     ;
(PID.TID 0000.0001) PTRACERS_SOM_Advection = /* tracer uses SOM advection scheme */
(PID.TID 0000.0001)                   F
(PID.TID 0000.0001)     ;
(PID.TID 0000.0001) PTRACERS_ImplVertAdv = /* implicit vert. advection flag */
(PID.TID 0000.0001)                   F
(PID.TID 0000.0001)     ;
(PID.TID 0000.0001) PTRACERS_diffKh = /* Laplacian Diffusivity */
(PID.TID 0000.0001)                 0.000000000000000E+00
(PID.TID 0000.0001)     ;
(PID.TID 0000.0001) PTRACERS_diffK4 = /* Biharmonic Diffusivity */
(PID.TID 0000.0001)                 0.000000000000000E+00
(PID.TID 0000.0001)     ;
(PID.TID 0000.0001) PTRACERS_diffKrNr = /* Vertical Diffusivity */
(PID.TID 0000.0001)    35 @  1.000000000000000E-05              /* K =  1: 35 */
(PID.TID 0000.0001)     ;
(PID.TID 0000.0001) PTRACERS_useGMRedi = /* apply GM-Redi */
(PID.TID 0000.0001)                   F
(PID.TID 0000.0001)     ;
(PID.TID 0000.0001) PTRACERS_useDWNSLP = /* apply DOWN-SLOPE Flow */
(PID.TID 0000.0001)                   F
(PID.TID 0000.0001)     ;
(PID.TID 0000.0001) PTRACERS_useKPP = /* apply KPP scheme */
(PID.TID 0000.0001)                   F
(PID.TID 0000.0001)     ;
(PID.TID 0000.0001) PTRACERS_ref = /* Reference vertical profile */
(PID.TID 0000.0001)    35 @  0.000000000000000E+00              /* K =  1: 35 */
(PID.TID 0000.0001)     ;
(PID.TID 0000.0001) PTRACERS_EvPrRn =/* tracer conc. in Evap. & Rain */
(PID.TID 0000.0001)                 1.234567000000000E+05
(PID.TID 0000.0001)     ;
(PID.TID 0000.0001)  -----------------------------------
(PID.TID 0000.0001)  tracer number :  164
(PID.TID 0000.0001) PTRACERS_names = /* Tracer short name */
(PID.TID 0000.0001)               'Chl67'
(PID.TID 0000.0001)     ;
(PID.TID 0000.0001) PTRACERS_long_names = /* Tracer long name */
(PID.TID 0000.0001)               ''
(PID.TID 0000.0001)     ;
(PID.TID 0000.0001) PTRACERS_ioLabel = /* tracer IO Label */
(PID.TID 0000.0001)               '1m'
(PID.TID 0000.0001)     ;
(PID.TID 0000.0001) PTRACERS_advScheme = /* Advection Scheme */
(PID.TID 0000.0001)                      33
(PID.TID 0000.0001)     ;
(PID.TID 0000.0001) PTRACERS_SOM_Advection = /* tracer uses SOM advection scheme */
(PID.TID 0000.0001)                   F
(PID.TID 0000.0001)     ;
(PID.TID 0000.0001) PTRACERS_ImplVertAdv = /* implicit vert. advection flag */
(PID.TID 0000.0001)                   F
(PID.TID 0000.0001)     ;
(PID.TID 0000.0001) PTRACERS_diffKh = /* Laplacian Diffusivity */
(PID.TID 0000.0001)                 0.000000000000000E+00
(PID.TID 0000.0001)     ;
(PID.TID 0000.0001) PTRACERS_diffK4 = /* Biharmonic Diffusivity */
(PID.TID 0000.0001)                 0.000000000000000E+00
(PID.TID 0000.0001)     ;
(PID.TID 0000.0001) PTRACERS_diffKrNr = /* Vertical Diffusivity */
(PID.TID 0000.0001)    35 @  1.000000000000000E-05              /* K =  1: 35 */
(PID.TID 0000.0001)     ;
(PID.TID 0000.0001) PTRACERS_useGMRedi = /* apply GM-Redi */
(PID.TID 0000.0001)                   F
(PID.TID 0000.0001)     ;
(PID.TID 0000.0001) PTRACERS_useDWNSLP = /* apply DOWN-SLOPE Flow */
(PID.TID 0000.0001)                   F
(PID.TID 0000.0001)     ;
(PID.TID 0000.0001) PTRACERS_useKPP = /* apply KPP scheme */
(PID.TID 0000.0001)                   F
(PID.TID 0000.0001)     ;
(PID.TID 0000.0001) PTRACERS_ref = /* Reference vertical profile */
(PID.TID 0000.0001)    35 @  0.000000000000000E+00              /* K =  1: 35 */
(PID.TID 0000.0001)     ;
(PID.TID 0000.0001) PTRACERS_EvPrRn =/* tracer conc. in Evap. & Rain */
(PID.TID 0000.0001)                 1.234567000000000E+05
(PID.TID 0000.0001)     ;
(PID.TID 0000.0001)  -----------------------------------
(PID.TID 0000.0001)  tracer number :  165
(PID.TID 0000.0001) PTRACERS_names = /* Tracer short name */
(PID.TID 0000.0001)               'Chl68'
(PID.TID 0000.0001)     ;
(PID.TID 0000.0001) PTRACERS_long_names = /* Tracer long name */
(PID.TID 0000.0001)               ''
(PID.TID 0000.0001)     ;
(PID.TID 0000.0001) PTRACERS_ioLabel = /* tracer IO Label */
(PID.TID 0000.0001)               '1n'
(PID.TID 0000.0001)     ;
(PID.TID 0000.0001) PTRACERS_advScheme = /* Advection Scheme */
(PID.TID 0000.0001)                      33
(PID.TID 0000.0001)     ;
(PID.TID 0000.0001) PTRACERS_SOM_Advection = /* tracer uses SOM advection scheme */
(PID.TID 0000.0001)                   F
(PID.TID 0000.0001)     ;
(PID.TID 0000.0001) PTRACERS_ImplVertAdv = /* implicit vert. advection flag */
(PID.TID 0000.0001)                   F
(PID.TID 0000.0001)     ;
(PID.TID 0000.0001) PTRACERS_diffKh = /* Laplacian Diffusivity */
(PID.TID 0000.0001)                 0.000000000000000E+00
(PID.TID 0000.0001)     ;
(PID.TID 0000.0001) PTRACERS_diffK4 = /* Biharmonic Diffusivity */
(PID.TID 0000.0001)                 0.000000000000000E+00
(PID.TID 0000.0001)     ;
(PID.TID 0000.0001) PTRACERS_diffKrNr = /* Vertical Diffusivity */
(PID.TID 0000.0001)    35 @  1.000000000000000E-05              /* K =  1: 35 */
(PID.TID 0000.0001)     ;
(PID.TID 0000.0001) PTRACERS_useGMRedi = /* apply GM-Redi */
(PID.TID 0000.0001)                   F
(PID.TID 0000.0001)     ;
(PID.TID 0000.0001) PTRACERS_useDWNSLP = /* apply DOWN-SLOPE Flow */
(PID.TID 0000.0001)                   F
(PID.TID 0000.0001)     ;
(PID.TID 0000.0001) PTRACERS_useKPP = /* apply KPP scheme */
(PID.TID 0000.0001)                   F
(PID.TID 0000.0001)     ;
(PID.TID 0000.0001) PTRACERS_ref = /* Reference vertical profile */
(PID.TID 0000.0001)    35 @  0.000000000000000E+00              /* K =  1: 35 */
(PID.TID 0000.0001)     ;
(PID.TID 0000.0001) PTRACERS_EvPrRn =/* tracer conc. in Evap. & Rain */
(PID.TID 0000.0001)                 1.234567000000000E+05
(PID.TID 0000.0001)     ;
(PID.TID 0000.0001)  -----------------------------------
(PID.TID 0000.0001)  tracer number :  166
(PID.TID 0000.0001) PTRACERS_names = /* Tracer short name */
(PID.TID 0000.0001)               'Chl69'
(PID.TID 0000.0001)     ;
(PID.TID 0000.0001) PTRACERS_long_names = /* Tracer long name */
(PID.TID 0000.0001)               ''
(PID.TID 0000.0001)     ;
(PID.TID 0000.0001) PTRACERS_ioLabel = /* tracer IO Label */
(PID.TID 0000.0001)               '1o'
(PID.TID 0000.0001)     ;
(PID.TID 0000.0001) PTRACERS_advScheme = /* Advection Scheme */
(PID.TID 0000.0001)                      33
(PID.TID 0000.0001)     ;
(PID.TID 0000.0001) PTRACERS_SOM_Advection = /* tracer uses SOM advection scheme */
(PID.TID 0000.0001)                   F
(PID.TID 0000.0001)     ;
(PID.TID 0000.0001) PTRACERS_ImplVertAdv = /* implicit vert. advection flag */
(PID.TID 0000.0001)                   F
(PID.TID 0000.0001)     ;
(PID.TID 0000.0001) PTRACERS_diffKh = /* Laplacian Diffusivity */
(PID.TID 0000.0001)                 0.000000000000000E+00
(PID.TID 0000.0001)     ;
(PID.TID 0000.0001) PTRACERS_diffK4 = /* Biharmonic Diffusivity */
(PID.TID 0000.0001)                 0.000000000000000E+00
(PID.TID 0000.0001)     ;
(PID.TID 0000.0001) PTRACERS_diffKrNr = /* Vertical Diffusivity */
(PID.TID 0000.0001)    35 @  1.000000000000000E-05              /* K =  1: 35 */
(PID.TID 0000.0001)     ;
(PID.TID 0000.0001) PTRACERS_useGMRedi = /* apply GM-Redi */
(PID.TID 0000.0001)                   F
(PID.TID 0000.0001)     ;
(PID.TID 0000.0001) PTRACERS_useDWNSLP = /* apply DOWN-SLOPE Flow */
(PID.TID 0000.0001)                   F
(PID.TID 0000.0001)     ;
(PID.TID 0000.0001) PTRACERS_useKPP = /* apply KPP scheme */
(PID.TID 0000.0001)                   F
(PID.TID 0000.0001)     ;
(PID.TID 0000.0001) PTRACERS_ref = /* Reference vertical profile */
(PID.TID 0000.0001)    35 @  0.000000000000000E+00              /* K =  1: 35 */
(PID.TID 0000.0001)     ;
(PID.TID 0000.0001) PTRACERS_EvPrRn =/* tracer conc. in Evap. & Rain */
(PID.TID 0000.0001)                 1.234567000000000E+05
(PID.TID 0000.0001)     ;
(PID.TID 0000.0001)  -----------------------------------
(PID.TID 0000.0001)  tracer number :  167
(PID.TID 0000.0001) PTRACERS_names = /* Tracer short name */
(PID.TID 0000.0001)               'Chl70'
(PID.TID 0000.0001)     ;
(PID.TID 0000.0001) PTRACERS_long_names = /* Tracer long name */
(PID.TID 0000.0001)               ''
(PID.TID 0000.0001)     ;
(PID.TID 0000.0001) PTRACERS_ioLabel = /* tracer IO Label */
(PID.TID 0000.0001)               '1p'
(PID.TID 0000.0001)     ;
(PID.TID 0000.0001) PTRACERS_advScheme = /* Advection Scheme */
(PID.TID 0000.0001)                      33
(PID.TID 0000.0001)     ;
(PID.TID 0000.0001) PTRACERS_SOM_Advection = /* tracer uses SOM advection scheme */
(PID.TID 0000.0001)                   F
(PID.TID 0000.0001)     ;
(PID.TID 0000.0001) PTRACERS_ImplVertAdv = /* implicit vert. advection flag */
(PID.TID 0000.0001)                   F
(PID.TID 0000.0001)     ;
(PID.TID 0000.0001) PTRACERS_diffKh = /* Laplacian Diffusivity */
(PID.TID 0000.0001)                 0.000000000000000E+00
(PID.TID 0000.0001)     ;
(PID.TID 0000.0001) PTRACERS_diffK4 = /* Biharmonic Diffusivity */
(PID.TID 0000.0001)                 0.000000000000000E+00
(PID.TID 0000.0001)     ;
(PID.TID 0000.0001) PTRACERS_diffKrNr = /* Vertical Diffusivity */
(PID.TID 0000.0001)    35 @  1.000000000000000E-05              /* K =  1: 35 */
(PID.TID 0000.0001)     ;
(PID.TID 0000.0001) PTRACERS_useGMRedi = /* apply GM-Redi */
(PID.TID 0000.0001)                   F
(PID.TID 0000.0001)     ;
(PID.TID 0000.0001) PTRACERS_useDWNSLP = /* apply DOWN-SLOPE Flow */
(PID.TID 0000.0001)                   F
(PID.TID 0000.0001)     ;
(PID.TID 0000.0001) PTRACERS_useKPP = /* apply KPP scheme */
(PID.TID 0000.0001)                   F
(PID.TID 0000.0001)     ;
(PID.TID 0000.0001) PTRACERS_ref = /* Reference vertical profile */
(PID.TID 0000.0001)    35 @  0.000000000000000E+00              /* K =  1: 35 */
(PID.TID 0000.0001)     ;
(PID.TID 0000.0001) PTRACERS_EvPrRn =/* tracer conc. in Evap. & Rain */
(PID.TID 0000.0001)                 1.234567000000000E+05
(PID.TID 0000.0001)     ;
(PID.TID 0000.0001)  -----------------------------------
(PID.TID 0000.0001)  tracer number :  168
(PID.TID 0000.0001) PTRACERS_names = /* Tracer short name */
(PID.TID 0000.0001)               'Chl71'
(PID.TID 0000.0001)     ;
(PID.TID 0000.0001) PTRACERS_long_names = /* Tracer long name */
(PID.TID 0000.0001)               ''
(PID.TID 0000.0001)     ;
(PID.TID 0000.0001) PTRACERS_ioLabel = /* tracer IO Label */
(PID.TID 0000.0001)               '1q'
(PID.TID 0000.0001)     ;
(PID.TID 0000.0001) PTRACERS_advScheme = /* Advection Scheme */
(PID.TID 0000.0001)                      33
(PID.TID 0000.0001)     ;
(PID.TID 0000.0001) PTRACERS_SOM_Advection = /* tracer uses SOM advection scheme */
(PID.TID 0000.0001)                   F
(PID.TID 0000.0001)     ;
(PID.TID 0000.0001) PTRACERS_ImplVertAdv = /* implicit vert. advection flag */
(PID.TID 0000.0001)                   F
(PID.TID 0000.0001)     ;
(PID.TID 0000.0001) PTRACERS_diffKh = /* Laplacian Diffusivity */
(PID.TID 0000.0001)                 0.000000000000000E+00
(PID.TID 0000.0001)     ;
(PID.TID 0000.0001) PTRACERS_diffK4 = /* Biharmonic Diffusivity */
(PID.TID 0000.0001)                 0.000000000000000E+00
(PID.TID 0000.0001)     ;
(PID.TID 0000.0001) PTRACERS_diffKrNr = /* Vertical Diffusivity */
(PID.TID 0000.0001)    35 @  1.000000000000000E-05              /* K =  1: 35 */
(PID.TID 0000.0001)     ;
(PID.TID 0000.0001) PTRACERS_useGMRedi = /* apply GM-Redi */
(PID.TID 0000.0001)                   F
(PID.TID 0000.0001)     ;
(PID.TID 0000.0001) PTRACERS_useDWNSLP = /* apply DOWN-SLOPE Flow */
(PID.TID 0000.0001)                   F
(PID.TID 0000.0001)     ;
(PID.TID 0000.0001) PTRACERS_useKPP = /* apply KPP scheme */
(PID.TID 0000.0001)                   F
(PID.TID 0000.0001)     ;
(PID.TID 0000.0001) PTRACERS_ref = /* Reference vertical profile */
(PID.TID 0000.0001)    35 @  0.000000000000000E+00              /* K =  1: 35 */
(PID.TID 0000.0001)     ;
(PID.TID 0000.0001) PTRACERS_EvPrRn =/* tracer conc. in Evap. & Rain */
(PID.TID 0000.0001)                 1.234567000000000E+05
(PID.TID 0000.0001)     ;
(PID.TID 0000.0001)  -----------------------------------
(PID.TID 0000.0001)  tracer number :  169
(PID.TID 0000.0001) PTRACERS_names = /* Tracer short name */
(PID.TID 0000.0001)               'Chl72'
(PID.TID 0000.0001)     ;
(PID.TID 0000.0001) PTRACERS_long_names = /* Tracer long name */
(PID.TID 0000.0001)               ''
(PID.TID 0000.0001)     ;
(PID.TID 0000.0001) PTRACERS_ioLabel = /* tracer IO Label */
(PID.TID 0000.0001)               '1r'
(PID.TID 0000.0001)     ;
(PID.TID 0000.0001) PTRACERS_advScheme = /* Advection Scheme */
(PID.TID 0000.0001)                      33
(PID.TID 0000.0001)     ;
(PID.TID 0000.0001) PTRACERS_SOM_Advection = /* tracer uses SOM advection scheme */
(PID.TID 0000.0001)                   F
(PID.TID 0000.0001)     ;
(PID.TID 0000.0001) PTRACERS_ImplVertAdv = /* implicit vert. advection flag */
(PID.TID 0000.0001)                   F
(PID.TID 0000.0001)     ;
(PID.TID 0000.0001) PTRACERS_diffKh = /* Laplacian Diffusivity */
(PID.TID 0000.0001)                 0.000000000000000E+00
(PID.TID 0000.0001)     ;
(PID.TID 0000.0001) PTRACERS_diffK4 = /* Biharmonic Diffusivity */
(PID.TID 0000.0001)                 0.000000000000000E+00
(PID.TID 0000.0001)     ;
(PID.TID 0000.0001) PTRACERS_diffKrNr = /* Vertical Diffusivity */
(PID.TID 0000.0001)    35 @  1.000000000000000E-05              /* K =  1: 35 */
(PID.TID 0000.0001)     ;
(PID.TID 0000.0001) PTRACERS_useGMRedi = /* apply GM-Redi */
(PID.TID 0000.0001)                   F
(PID.TID 0000.0001)     ;
(PID.TID 0000.0001) PTRACERS_useDWNSLP = /* apply DOWN-SLOPE Flow */
(PID.TID 0000.0001)                   F
(PID.TID 0000.0001)     ;
(PID.TID 0000.0001) PTRACERS_useKPP = /* apply KPP scheme */
(PID.TID 0000.0001)                   F
(PID.TID 0000.0001)     ;
(PID.TID 0000.0001) PTRACERS_ref = /* Reference vertical profile */
(PID.TID 0000.0001)    35 @  0.000000000000000E+00              /* K =  1: 35 */
(PID.TID 0000.0001)     ;
(PID.TID 0000.0001) PTRACERS_EvPrRn =/* tracer conc. in Evap. & Rain */
(PID.TID 0000.0001)                 1.234567000000000E+05
(PID.TID 0000.0001)     ;
(PID.TID 0000.0001)  -----------------------------------
(PID.TID 0000.0001)  tracer number :  170
(PID.TID 0000.0001) PTRACERS_names = /* Tracer short name */
(PID.TID 0000.0001)               'Chl73'
(PID.TID 0000.0001)     ;
(PID.TID 0000.0001) PTRACERS_long_names = /* Tracer long name */
(PID.TID 0000.0001)               ''
(PID.TID 0000.0001)     ;
(PID.TID 0000.0001) PTRACERS_ioLabel = /* tracer IO Label */
(PID.TID 0000.0001)               '1s'
(PID.TID 0000.0001)     ;
(PID.TID 0000.0001) PTRACERS_advScheme = /* Advection Scheme */
(PID.TID 0000.0001)                      33
(PID.TID 0000.0001)     ;
(PID.TID 0000.0001) PTRACERS_SOM_Advection = /* tracer uses SOM advection scheme */
(PID.TID 0000.0001)                   F
(PID.TID 0000.0001)     ;
(PID.TID 0000.0001) PTRACERS_ImplVertAdv = /* implicit vert. advection flag */
(PID.TID 0000.0001)                   F
(PID.TID 0000.0001)     ;
(PID.TID 0000.0001) PTRACERS_diffKh = /* Laplacian Diffusivity */
(PID.TID 0000.0001)                 0.000000000000000E+00
(PID.TID 0000.0001)     ;
(PID.TID 0000.0001) PTRACERS_diffK4 = /* Biharmonic Diffusivity */
(PID.TID 0000.0001)                 0.000000000000000E+00
(PID.TID 0000.0001)     ;
(PID.TID 0000.0001) PTRACERS_diffKrNr = /* Vertical Diffusivity */
(PID.TID 0000.0001)    35 @  1.000000000000000E-05              /* K =  1: 35 */
(PID.TID 0000.0001)     ;
(PID.TID 0000.0001) PTRACERS_useGMRedi = /* apply GM-Redi */
(PID.TID 0000.0001)                   F
(PID.TID 0000.0001)     ;
(PID.TID 0000.0001) PTRACERS_useDWNSLP = /* apply DOWN-SLOPE Flow */
(PID.TID 0000.0001)                   F
(PID.TID 0000.0001)     ;
(PID.TID 0000.0001) PTRACERS_useKPP = /* apply KPP scheme */
(PID.TID 0000.0001)                   F
(PID.TID 0000.0001)     ;
(PID.TID 0000.0001) PTRACERS_ref = /* Reference vertical profile */
(PID.TID 0000.0001)    35 @  0.000000000000000E+00              /* K =  1: 35 */
(PID.TID 0000.0001)     ;
(PID.TID 0000.0001) PTRACERS_EvPrRn =/* tracer conc. in Evap. & Rain */
(PID.TID 0000.0001)                 1.234567000000000E+05
(PID.TID 0000.0001)     ;
(PID.TID 0000.0001)  -----------------------------------
(PID.TID 0000.0001)  tracer number :  171
(PID.TID 0000.0001) PTRACERS_names = /* Tracer short name */
(PID.TID 0000.0001)               'Chl74'
(PID.TID 0000.0001)     ;
(PID.TID 0000.0001) PTRACERS_long_names = /* Tracer long name */
(PID.TID 0000.0001)               ''
(PID.TID 0000.0001)     ;
(PID.TID 0000.0001) PTRACERS_ioLabel = /* tracer IO Label */
(PID.TID 0000.0001)               '1t'
(PID.TID 0000.0001)     ;
(PID.TID 0000.0001) PTRACERS_advScheme = /* Advection Scheme */
(PID.TID 0000.0001)                      33
(PID.TID 0000.0001)     ;
(PID.TID 0000.0001) PTRACERS_SOM_Advection = /* tracer uses SOM advection scheme */
(PID.TID 0000.0001)                   F
(PID.TID 0000.0001)     ;
(PID.TID 0000.0001) PTRACERS_ImplVertAdv = /* implicit vert. advection flag */
(PID.TID 0000.0001)                   F
(PID.TID 0000.0001)     ;
(PID.TID 0000.0001) PTRACERS_diffKh = /* Laplacian Diffusivity */
(PID.TID 0000.0001)                 0.000000000000000E+00
(PID.TID 0000.0001)     ;
(PID.TID 0000.0001) PTRACERS_diffK4 = /* Biharmonic Diffusivity */
(PID.TID 0000.0001)                 0.000000000000000E+00
(PID.TID 0000.0001)     ;
(PID.TID 0000.0001) PTRACERS_diffKrNr = /* Vertical Diffusivity */
(PID.TID 0000.0001)    35 @  1.000000000000000E-05              /* K =  1: 35 */
(PID.TID 0000.0001)     ;
(PID.TID 0000.0001) PTRACERS_useGMRedi = /* apply GM-Redi */
(PID.TID 0000.0001)                   F
(PID.TID 0000.0001)     ;
(PID.TID 0000.0001) PTRACERS_useDWNSLP = /* apply DOWN-SLOPE Flow */
(PID.TID 0000.0001)                   F
(PID.TID 0000.0001)     ;
(PID.TID 0000.0001) PTRACERS_useKPP = /* apply KPP scheme */
(PID.TID 0000.0001)                   F
(PID.TID 0000.0001)     ;
(PID.TID 0000.0001) PTRACERS_ref = /* Reference vertical profile */
(PID.TID 0000.0001)    35 @  0.000000000000000E+00              /* K =  1: 35 */
(PID.TID 0000.0001)     ;
(PID.TID 0000.0001) PTRACERS_EvPrRn =/* tracer conc. in Evap. & Rain */
(PID.TID 0000.0001)                 1.234567000000000E+05
(PID.TID 0000.0001)     ;
(PID.TID 0000.0001)  -----------------------------------
(PID.TID 0000.0001)  tracer number :  172
(PID.TID 0000.0001) PTRACERS_names = /* Tracer short name */
(PID.TID 0000.0001)               'Chl75'
(PID.TID 0000.0001)     ;
(PID.TID 0000.0001) PTRACERS_long_names = /* Tracer long name */
(PID.TID 0000.0001)               ''
(PID.TID 0000.0001)     ;
(PID.TID 0000.0001) PTRACERS_ioLabel = /* tracer IO Label */
(PID.TID 0000.0001)               '1u'
(PID.TID 0000.0001)     ;
(PID.TID 0000.0001) PTRACERS_advScheme = /* Advection Scheme */
(PID.TID 0000.0001)                      33
(PID.TID 0000.0001)     ;
(PID.TID 0000.0001) PTRACERS_SOM_Advection = /* tracer uses SOM advection scheme */
(PID.TID 0000.0001)                   F
(PID.TID 0000.0001)     ;
(PID.TID 0000.0001) PTRACERS_ImplVertAdv = /* implicit vert. advection flag */
(PID.TID 0000.0001)                   F
(PID.TID 0000.0001)     ;
(PID.TID 0000.0001) PTRACERS_diffKh = /* Laplacian Diffusivity */
(PID.TID 0000.0001)                 0.000000000000000E+00
(PID.TID 0000.0001)     ;
(PID.TID 0000.0001) PTRACERS_diffK4 = /* Biharmonic Diffusivity */
(PID.TID 0000.0001)                 0.000000000000000E+00
(PID.TID 0000.0001)     ;
(PID.TID 0000.0001) PTRACERS_diffKrNr = /* Vertical Diffusivity */
(PID.TID 0000.0001)    35 @  1.000000000000000E-05              /* K =  1: 35 */
(PID.TID 0000.0001)     ;
(PID.TID 0000.0001) PTRACERS_useGMRedi = /* apply GM-Redi */
(PID.TID 0000.0001)                   F
(PID.TID 0000.0001)     ;
(PID.TID 0000.0001) PTRACERS_useDWNSLP = /* apply DOWN-SLOPE Flow */
(PID.TID 0000.0001)                   F
(PID.TID 0000.0001)     ;
(PID.TID 0000.0001) PTRACERS_useKPP = /* apply KPP scheme */
(PID.TID 0000.0001)                   F
(PID.TID 0000.0001)     ;
(PID.TID 0000.0001) PTRACERS_ref = /* Reference vertical profile */
(PID.TID 0000.0001)    35 @  0.000000000000000E+00              /* K =  1: 35 */
(PID.TID 0000.0001)     ;
(PID.TID 0000.0001) PTRACERS_EvPrRn =/* tracer conc. in Evap. & Rain */
(PID.TID 0000.0001)                 1.234567000000000E+05
(PID.TID 0000.0001)     ;
(PID.TID 0000.0001)  -----------------------------------
(PID.TID 0000.0001)  tracer number :  173
(PID.TID 0000.0001) PTRACERS_names = /* Tracer short name */
(PID.TID 0000.0001)               'Chl76'
(PID.TID 0000.0001)     ;
(PID.TID 0000.0001) PTRACERS_long_names = /* Tracer long name */
(PID.TID 0000.0001)               ''
(PID.TID 0000.0001)     ;
(PID.TID 0000.0001) PTRACERS_ioLabel = /* tracer IO Label */
(PID.TID 0000.0001)               '1v'
(PID.TID 0000.0001)     ;
(PID.TID 0000.0001) PTRACERS_advScheme = /* Advection Scheme */
(PID.TID 0000.0001)                      33
(PID.TID 0000.0001)     ;
(PID.TID 0000.0001) PTRACERS_SOM_Advection = /* tracer uses SOM advection scheme */
(PID.TID 0000.0001)                   F
(PID.TID 0000.0001)     ;
(PID.TID 0000.0001) PTRACERS_ImplVertAdv = /* implicit vert. advection flag */
(PID.TID 0000.0001)                   F
(PID.TID 0000.0001)     ;
(PID.TID 0000.0001) PTRACERS_diffKh = /* Laplacian Diffusivity */
(PID.TID 0000.0001)                 0.000000000000000E+00
(PID.TID 0000.0001)     ;
(PID.TID 0000.0001) PTRACERS_diffK4 = /* Biharmonic Diffusivity */
(PID.TID 0000.0001)                 0.000000000000000E+00
(PID.TID 0000.0001)     ;
(PID.TID 0000.0001) PTRACERS_diffKrNr = /* Vertical Diffusivity */
(PID.TID 0000.0001)    35 @  1.000000000000000E-05              /* K =  1: 35 */
(PID.TID 0000.0001)     ;
(PID.TID 0000.0001) PTRACERS_useGMRedi = /* apply GM-Redi */
(PID.TID 0000.0001)                   F
(PID.TID 0000.0001)     ;
(PID.TID 0000.0001) PTRACERS_useDWNSLP = /* apply DOWN-SLOPE Flow */
(PID.TID 0000.0001)                   F
(PID.TID 0000.0001)     ;
(PID.TID 0000.0001) PTRACERS_useKPP = /* apply KPP scheme */
(PID.TID 0000.0001)                   F
(PID.TID 0000.0001)     ;
(PID.TID 0000.0001) PTRACERS_ref = /* Reference vertical profile */
(PID.TID 0000.0001)    35 @  0.000000000000000E+00              /* K =  1: 35 */
(PID.TID 0000.0001)     ;
(PID.TID 0000.0001) PTRACERS_EvPrRn =/* tracer conc. in Evap. & Rain */
(PID.TID 0000.0001)                 1.234567000000000E+05
(PID.TID 0000.0001)     ;
(PID.TID 0000.0001)  -----------------------------------
(PID.TID 0000.0001)  tracer number :  174
(PID.TID 0000.0001) PTRACERS_names = /* Tracer short name */
(PID.TID 0000.0001)               'Chl77'
(PID.TID 0000.0001)     ;
(PID.TID 0000.0001) PTRACERS_long_names = /* Tracer long name */
(PID.TID 0000.0001)               ''
(PID.TID 0000.0001)     ;
(PID.TID 0000.0001) PTRACERS_ioLabel = /* tracer IO Label */
(PID.TID 0000.0001)               '1w'
(PID.TID 0000.0001)     ;
(PID.TID 0000.0001) PTRACERS_advScheme = /* Advection Scheme */
(PID.TID 0000.0001)                      33
(PID.TID 0000.0001)     ;
(PID.TID 0000.0001) PTRACERS_SOM_Advection = /* tracer uses SOM advection scheme */
(PID.TID 0000.0001)                   F
(PID.TID 0000.0001)     ;
(PID.TID 0000.0001) PTRACERS_ImplVertAdv = /* implicit vert. advection flag */
(PID.TID 0000.0001)                   F
(PID.TID 0000.0001)     ;
(PID.TID 0000.0001) PTRACERS_diffKh = /* Laplacian Diffusivity */
(PID.TID 0000.0001)                 0.000000000000000E+00
(PID.TID 0000.0001)     ;
(PID.TID 0000.0001) PTRACERS_diffK4 = /* Biharmonic Diffusivity */
(PID.TID 0000.0001)                 0.000000000000000E+00
(PID.TID 0000.0001)     ;
(PID.TID 0000.0001) PTRACERS_diffKrNr = /* Vertical Diffusivity */
(PID.TID 0000.0001)    35 @  1.000000000000000E-05              /* K =  1: 35 */
(PID.TID 0000.0001)     ;
(PID.TID 0000.0001) PTRACERS_useGMRedi = /* apply GM-Redi */
(PID.TID 0000.0001)                   F
(PID.TID 0000.0001)     ;
(PID.TID 0000.0001) PTRACERS_useDWNSLP = /* apply DOWN-SLOPE Flow */
(PID.TID 0000.0001)                   F
(PID.TID 0000.0001)     ;
(PID.TID 0000.0001) PTRACERS_useKPP = /* apply KPP scheme */
(PID.TID 0000.0001)                   F
(PID.TID 0000.0001)     ;
(PID.TID 0000.0001) PTRACERS_ref = /* Reference vertical profile */
(PID.TID 0000.0001)    35 @  0.000000000000000E+00              /* K =  1: 35 */
(PID.TID 0000.0001)     ;
(PID.TID 0000.0001) PTRACERS_EvPrRn =/* tracer conc. in Evap. & Rain */
(PID.TID 0000.0001)                 1.234567000000000E+05
(PID.TID 0000.0001)     ;
(PID.TID 0000.0001)  -----------------------------------
(PID.TID 0000.0001)  tracer number :  175
(PID.TID 0000.0001) PTRACERS_names = /* Tracer short name */
(PID.TID 0000.0001)               'Chl78'
(PID.TID 0000.0001)     ;
(PID.TID 0000.0001) PTRACERS_long_names = /* Tracer long name */
(PID.TID 0000.0001)               ''
(PID.TID 0000.0001)     ;
(PID.TID 0000.0001) PTRACERS_ioLabel = /* tracer IO Label */
(PID.TID 0000.0001)               '1x'
(PID.TID 0000.0001)     ;
(PID.TID 0000.0001) PTRACERS_advScheme = /* Advection Scheme */
(PID.TID 0000.0001)                      33
(PID.TID 0000.0001)     ;
(PID.TID 0000.0001) PTRACERS_SOM_Advection = /* tracer uses SOM advection scheme */
(PID.TID 0000.0001)                   F
(PID.TID 0000.0001)     ;
(PID.TID 0000.0001) PTRACERS_ImplVertAdv = /* implicit vert. advection flag */
(PID.TID 0000.0001)                   F
(PID.TID 0000.0001)     ;
(PID.TID 0000.0001) PTRACERS_diffKh = /* Laplacian Diffusivity */
(PID.TID 0000.0001)                 0.000000000000000E+00
(PID.TID 0000.0001)     ;
(PID.TID 0000.0001) PTRACERS_diffK4 = /* Biharmonic Diffusivity */
(PID.TID 0000.0001)                 0.000000000000000E+00
(PID.TID 0000.0001)     ;
(PID.TID 0000.0001) PTRACERS_diffKrNr = /* Vertical Diffusivity */
(PID.TID 0000.0001)    35 @  1.000000000000000E-05              /* K =  1: 35 */
(PID.TID 0000.0001)     ;
(PID.TID 0000.0001) PTRACERS_useGMRedi = /* apply GM-Redi */
(PID.TID 0000.0001)                   F
(PID.TID 0000.0001)     ;
(PID.TID 0000.0001) PTRACERS_useDWNSLP = /* apply DOWN-SLOPE Flow */
(PID.TID 0000.0001)                   F
(PID.TID 0000.0001)     ;
(PID.TID 0000.0001) PTRACERS_useKPP = /* apply KPP scheme */
(PID.TID 0000.0001)                   F
(PID.TID 0000.0001)     ;
(PID.TID 0000.0001) PTRACERS_ref = /* Reference vertical profile */
(PID.TID 0000.0001)    35 @  0.000000000000000E+00              /* K =  1: 35 */
(PID.TID 0000.0001)     ;
(PID.TID 0000.0001) PTRACERS_EvPrRn =/* tracer conc. in Evap. & Rain */
(PID.TID 0000.0001)                 1.234567000000000E+05
(PID.TID 0000.0001)     ;
(PID.TID 0000.0001)  -----------------------------------
(PID.TID 0000.0001) GCHEM_CHECK: #define ALLOW_GCHEM
(PID.TID 0000.0001) DARWIN_CHECK: #define ALLOW_DARWIN
(PID.TID 0000.0001) DARWIN_CHECK: iPtr darwin   PTRACERS_names
(PID.TID 0000.0001) DARWIN_CHECK:    1 DIC      DIC
(PID.TID 0000.0001) DARWIN_CHECK:    2 NH4      NH4
(PID.TID 0000.0001) DARWIN_CHECK:    3 NO2      NO2
(PID.TID 0000.0001) DARWIN_CHECK:    4 NO3      NO3
(PID.TID 0000.0001) DARWIN_CHECK:    5 PO4      PO4
(PID.TID 0000.0001) DARWIN_CHECK:    6 SiO2     SiO2
(PID.TID 0000.0001) DARWIN_CHECK:    7 FeT      FeT
(PID.TID 0000.0001) DARWIN_CHECK:    8 DOC      DOC
(PID.TID 0000.0001) DARWIN_CHECK:    9 DON      DON
(PID.TID 0000.0001) DARWIN_CHECK:   10 DOP      DOP
(PID.TID 0000.0001) DARWIN_CHECK:   11 DOFe     DOFe
(PID.TID 0000.0001) DARWIN_CHECK:   12 POC      POC
(PID.TID 0000.0001) DARWIN_CHECK:   13 PON      PON
(PID.TID 0000.0001) DARWIN_CHECK:   14 POP      POP
(PID.TID 0000.0001) DARWIN_CHECK:   15 POSi     POSi
(PID.TID 0000.0001) DARWIN_CHECK:   16 POFe     POFe
(PID.TID 0000.0001) DARWIN_CHECK:   17 PIC      PIC
(PID.TID 0000.0001) DARWIN_CHECK:   18 c    (1) c01
(PID.TID 0000.0001) DARWIN_CHECK:   19 c    (2) c02
(PID.TID 0000.0001) DARWIN_CHECK:   20 c    (3) c03
(PID.TID 0000.0001) DARWIN_CHECK:   21 c    (4) c04
(PID.TID 0000.0001) DARWIN_CHECK:   22 c    (5) c05
(PID.TID 0000.0001) DARWIN_CHECK:   23 c    (6) c06
(PID.TID 0000.0001) DARWIN_CHECK:   24 c    (7) c07
(PID.TID 0000.0001) DARWIN_CHECK:   25 c    (8) c08
(PID.TID 0000.0001) DARWIN_CHECK:   26 c    (9) c09
(PID.TID 0000.0001) DARWIN_CHECK:   27 c    (*) c10
(PID.TID 0000.0001) DARWIN_CHECK:   28 c    (*) c11
(PID.TID 0000.0001) DARWIN_CHECK:   29 c    (*) c12
(PID.TID 0000.0001) DARWIN_CHECK:   30 c    (*) c13
(PID.TID 0000.0001) DARWIN_CHECK:   31 c    (*) c14
(PID.TID 0000.0001) DARWIN_CHECK:   32 c    (*) c15
(PID.TID 0000.0001) DARWIN_CHECK:   33 c    (*) c16
(PID.TID 0000.0001) DARWIN_CHECK:   34 c    (*) c17
(PID.TID 0000.0001) DARWIN_CHECK:   35 c    (*) c18
(PID.TID 0000.0001) DARWIN_CHECK:   36 c    (*) c19
(PID.TID 0000.0001) DARWIN_CHECK:   37 c    (*) c20
(PID.TID 0000.0001) DARWIN_CHECK:   38 c    (*) c21
(PID.TID 0000.0001) DARWIN_CHECK:   39 c    (*) c22
(PID.TID 0000.0001) DARWIN_CHECK:   40 c    (*) c23
(PID.TID 0000.0001) DARWIN_CHECK:   41 c    (*) c24
(PID.TID 0000.0001) DARWIN_CHECK:   42 c    (*) c25
(PID.TID 0000.0001) DARWIN_CHECK:   43 c    (*) c26
(PID.TID 0000.0001) DARWIN_CHECK:   44 c    (*) c27
(PID.TID 0000.0001) DARWIN_CHECK:   45 c    (*) c28
(PID.TID 0000.0001) DARWIN_CHECK:   46 c    (*) c29
(PID.TID 0000.0001) DARWIN_CHECK:   47 c    (*) c30
(PID.TID 0000.0001) DARWIN_CHECK:   48 c    (*) c31
(PID.TID 0000.0001) DARWIN_CHECK:   49 c    (*) c32
(PID.TID 0000.0001) DARWIN_CHECK:   50 c    (*) c33
(PID.TID 0000.0001) DARWIN_CHECK:   51 c    (*) c34
(PID.TID 0000.0001) DARWIN_CHECK:   52 c    (*) c35
(PID.TID 0000.0001) DARWIN_CHECK:   53 c    (*) c36
(PID.TID 0000.0001) DARWIN_CHECK:   54 c    (*) c37
(PID.TID 0000.0001) DARWIN_CHECK:   55 c    (*) c38
(PID.TID 0000.0001) DARWIN_CHECK:   56 c    (*) c39
(PID.TID 0000.0001) DARWIN_CHECK:   57 c    (*) c40
(PID.TID 0000.0001) DARWIN_CHECK:   58 c    (*) c41
(PID.TID 0000.0001) DARWIN_CHECK:   59 c    (*) c42
(PID.TID 0000.0001) DARWIN_CHECK:   60 c    (*) c43
(PID.TID 0000.0001) DARWIN_CHECK:   61 c    (*) c44
(PID.TID 0000.0001) DARWIN_CHECK:   62 c    (*) c45
(PID.TID 0000.0001) DARWIN_CHECK:   63 c    (*) c46
(PID.TID 0000.0001) DARWIN_CHECK:   64 c    (*) c47
(PID.TID 0000.0001) DARWIN_CHECK:   65 c    (*) c48
(PID.TID 0000.0001) DARWIN_CHECK:   66 c    (*) c49
(PID.TID 0000.0001) DARWIN_CHECK:   67 c    (*) c50
(PID.TID 0000.0001) DARWIN_CHECK:   68 c    (*) c51
(PID.TID 0000.0001) DARWIN_CHECK:   69 c    (*) c52
(PID.TID 0000.0001) DARWIN_CHECK:   70 c    (*) c53
(PID.TID 0000.0001) DARWIN_CHECK:   71 c    (*) c54
(PID.TID 0000.0001) DARWIN_CHECK:   72 c    (*) c55
(PID.TID 0000.0001) DARWIN_CHECK:   73 c    (*) c56
(PID.TID 0000.0001) DARWIN_CHECK:   74 c    (*) c57
(PID.TID 0000.0001) DARWIN_CHECK:   75 c    (*) c58
(PID.TID 0000.0001) DARWIN_CHECK:   76 c    (*) c59
(PID.TID 0000.0001) DARWIN_CHECK:   77 c    (*) c60
(PID.TID 0000.0001) DARWIN_CHECK:   78 c    (*) c61
(PID.TID 0000.0001) DARWIN_CHECK:   79 c    (*) c62
(PID.TID 0000.0001) DARWIN_CHECK:   80 c    (*) c63
(PID.TID 0000.0001) DARWIN_CHECK:   81 c    (*) c64
(PID.TID 0000.0001) DARWIN_CHECK:   82 c    (*) c65
(PID.TID 0000.0001) DARWIN_CHECK:   83 c    (*) c66
(PID.TID 0000.0001) DARWIN_CHECK:   84 c    (*) c67
(PID.TID 0000.0001) DARWIN_CHECK:   85 c    (*) c68
(PID.TID 0000.0001) DARWIN_CHECK:   86 c    (*) c69
(PID.TID 0000.0001) DARWIN_CHECK:   87 c    (*) c70
(PID.TID 0000.0001) DARWIN_CHECK:   88 c    (*) c71
(PID.TID 0000.0001) DARWIN_CHECK:   89 c    (*) c72
(PID.TID 0000.0001) DARWIN_CHECK:   90 c    (*) c73
(PID.TID 0000.0001) DARWIN_CHECK:   91 c    (*) c74
(PID.TID 0000.0001) DARWIN_CHECK:   92 c    (*) c75
(PID.TID 0000.0001) DARWIN_CHECK:   93 c    (*) c76
(PID.TID 0000.0001) DARWIN_CHECK:   94 c    (*) c77
(PID.TID 0000.0001) DARWIN_CHECK:   95 c    (*) c78
(PID.TID 0000.0001) DARWIN_CHECK:   96 c    (*) zc1
(PID.TID 0000.0001) DARWIN_CHECK:   97 c    (*) zc2
(PID.TID 0000.0001) DARWIN_CHECK:   98 Chl  (1) Chl01
(PID.TID 0000.0001) DARWIN_CHECK:   99 Chl  (2) Chl02
(PID.TID 0000.0001) DARWIN_CHECK:  100 Chl  (3) Chl03
(PID.TID 0000.0001) DARWIN_CHECK:  101 Chl  (4) Chl04
(PID.TID 0000.0001) DARWIN_CHECK:  102 Chl  (5) Chl05
(PID.TID 0000.0001) DARWIN_CHECK:  103 Chl  (6) Chl06
(PID.TID 0000.0001) DARWIN_CHECK:  104 Chl  (7) Chl07
(PID.TID 0000.0001) DARWIN_CHECK:  105 Chl  (8) Chl08
(PID.TID 0000.0001) DARWIN_CHECK:  106 Chl  (9) Chl09
(PID.TID 0000.0001) DARWIN_CHECK:  107 Chl  (*) Chl10
(PID.TID 0000.0001) DARWIN_CHECK:  108 Chl  (*) Chl11
(PID.TID 0000.0001) DARWIN_CHECK:  109 Chl  (*) Chl12
(PID.TID 0000.0001) DARWIN_CHECK:  110 Chl  (*) Chl13
(PID.TID 0000.0001) DARWIN_CHECK:  111 Chl  (*) Chl14
(PID.TID 0000.0001) DARWIN_CHECK:  112 Chl  (*) Chl15
(PID.TID 0000.0001) DARWIN_CHECK:  113 Chl  (*) Chl16
(PID.TID 0000.0001) DARWIN_CHECK:  114 Chl  (*) Chl17
(PID.TID 0000.0001) DARWIN_CHECK:  115 Chl  (*) Chl18
(PID.TID 0000.0001) DARWIN_CHECK:  116 Chl  (*) Chl19
(PID.TID 0000.0001) DARWIN_CHECK:  117 Chl  (*) Chl20
(PID.TID 0000.0001) DARWIN_CHECK:  118 Chl  (*) Chl21
(PID.TID 0000.0001) DARWIN_CHECK:  119 Chl  (*) Chl22
(PID.TID 0000.0001) DARWIN_CHECK:  120 Chl  (*) Chl23
(PID.TID 0000.0001) DARWIN_CHECK:  121 Chl  (*) Chl24
(PID.TID 0000.0001) DARWIN_CHECK:  122 Chl  (*) Chl25
(PID.TID 0000.0001) DARWIN_CHECK:  123 Chl  (*) Chl26
(PID.TID 0000.0001) DARWIN_CHECK:  124 Chl  (*) Chl27
(PID.TID 0000.0001) DARWIN_CHECK:  125 Chl  (*) Chl28
(PID.TID 0000.0001) DARWIN_CHECK:  126 Chl  (*) Chl29
(PID.TID 0000.0001) DARWIN_CHECK:  127 Chl  (*) Chl30
(PID.TID 0000.0001) DARWIN_CHECK:  128 Chl  (*) Chl31
(PID.TID 0000.0001) DARWIN_CHECK:  129 Chl  (*) Chl32
(PID.TID 0000.0001) DARWIN_CHECK:  130 Chl  (*) Chl33
(PID.TID 0000.0001) DARWIN_CHECK:  131 Chl  (*) Chl34
(PID.TID 0000.0001) DARWIN_CHECK:  132 Chl  (*) Chl35
(PID.TID 0000.0001) DARWIN_CHECK:  133 Chl  (*) Chl36
(PID.TID 0000.0001) DARWIN_CHECK:  134 Chl  (*) Chl37
(PID.TID 0000.0001) DARWIN_CHECK:  135 Chl  (*) Chl38
(PID.TID 0000.0001) DARWIN_CHECK:  136 Chl  (*) Chl39
(PID.TID 0000.0001) DARWIN_CHECK:  137 Chl  (*) Chl40
(PID.TID 0000.0001) DARWIN_CHECK:  138 Chl  (*) Chl41
(PID.TID 0000.0001) DARWIN_CHECK:  139 Chl  (*) Chl42
(PID.TID 0000.0001) DARWIN_CHECK:  140 Chl  (*) Chl43
(PID.TID 0000.0001) DARWIN_CHECK:  141 Chl  (*) Chl44
(PID.TID 0000.0001) DARWIN_CHECK:  142 Chl  (*) Chl45
(PID.TID 0000.0001) DARWIN_CHECK:  143 Chl  (*) Chl46
(PID.TID 0000.0001) DARWIN_CHECK:  144 Chl  (*) Chl47
(PID.TID 0000.0001) DARWIN_CHECK:  145 Chl  (*) Chl48
(PID.TID 0000.0001) DARWIN_CHECK:  146 Chl  (*) Chl49
(PID.TID 0000.0001) DARWIN_CHECK:  147 Chl  (*) Chl50
(PID.TID 0000.0001) DARWIN_CHECK:  148 Chl  (*) Chl51
(PID.TID 0000.0001) DARWIN_CHECK:  149 Chl  (*) Chl52
(PID.TID 0000.0001) DARWIN_CHECK:  150 Chl  (*) Chl53
(PID.TID 0000.0001) DARWIN_CHECK:  151 Chl  (*) Chl54
(PID.TID 0000.0001) DARWIN_CHECK:  152 Chl  (*) Chl55
(PID.TID 0000.0001) DARWIN_CHECK:  153 Chl  (*) Chl56
(PID.TID 0000.0001) DARWIN_CHECK:  154 Chl  (*) Chl57
(PID.TID 0000.0001) DARWIN_CHECK:  155 Chl  (*) Chl58
(PID.TID 0000.0001) DARWIN_CHECK:  156 Chl  (*) Chl59
(PID.TID 0000.0001) DARWIN_CHECK:  157 Chl  (*) Chl60
(PID.TID 0000.0001) DARWIN_CHECK:  158 Chl  (*) Chl61
(PID.TID 0000.0001) DARWIN_CHECK:  159 Chl  (*) Chl62
(PID.TID 0000.0001) DARWIN_CHECK:  160 Chl  (*) Chl63
(PID.TID 0000.0001) DARWIN_CHECK:  161 Chl  (*) Chl64
(PID.TID 0000.0001) DARWIN_CHECK:  162 Chl  (*) Chl65
(PID.TID 0000.0001) DARWIN_CHECK:  163 Chl  (*) Chl66
(PID.TID 0000.0001) DARWIN_CHECK:  164 Chl  (*) Chl67
(PID.TID 0000.0001) DARWIN_CHECK:  165 Chl  (*) Chl68
(PID.TID 0000.0001) DARWIN_CHECK:  166 Chl  (*) Chl69
(PID.TID 0000.0001) DARWIN_CHECK:  167 Chl  (*) Chl70
(PID.TID 0000.0001) DARWIN_CHECK:  168 Chl  (*) Chl71
(PID.TID 0000.0001) DARWIN_CHECK:  169 Chl  (*) Chl72
(PID.TID 0000.0001) DARWIN_CHECK:  170 Chl  (*) Chl73
(PID.TID 0000.0001) DARWIN_CHECK:  171 Chl  (*) Chl74
(PID.TID 0000.0001) DARWIN_CHECK:  172 Chl  (*) Chl75
(PID.TID 0000.0001) DARWIN_CHECK:  173 Chl  (*) Chl76
(PID.TID 0000.0001) DARWIN_CHECK:  174 Chl  (*) Chl77
(PID.TID 0000.0001) DARWIN_CHECK:  175 Chl  (*) Chl78
(PID.TID 0000.0001) GAD_CHECK: #define ALLOW_GENERIC_ADVDIFF
(PID.TID 0000.0001) // =======================================================
(PID.TID 0000.0001) // Check Model config. (CONFIG_CHECK):
(PID.TID 0000.0001) // CONFIG_CHECK : Normal End
(PID.TID 0000.0001) // =======================================================
(PID.TID 0000.0001) 
(PID.TID 0000.0001)  MDS_READ_FIELD: opening global file: ../input/input/loc1_temp_janprof.bin
(PID.TID 0000.0001)  MDS_READ_FIELD: opening global file: ../input/input/salt_uniform.bin
(PID.TID 0000.0001) Start initial hydrostatic pressure computation
(PID.TID 0000.0001) Pressure is predetermined for buoyancyRelation OCEANIC
(PID.TID 0000.0001) 
(PID.TID 0000.0001)  MDS_READ_FIELD: opening global file: ../input/input/loc1_temp_monsurf.bin
(PID.TID 0000.0001)  write diagnostics summary to file ioUnit:      6
Iter.Nb:         0 ; Time(s):  0.0000000000000E+00
------------------------------------------------------------------------
2D/3D diagnostics: Number of lists:     1
------------------------------------------------------------------------
listId=    1 ; file name: darwin
 nFlds, nActive,       freq     &     phase        , nLev               
  203  |  203  |      3600.000000         0.000000 |  35
 levels:   1   2   3   4   5   6   7   8   9  10  11  12  13  14  15  16  17  18  19  20  21  22  23  24  25
 levels:  26  27  28  29  30  31  32  33  34  35
 diag# | name   |   ipt  |  iMate | kLev|   count |   mate.C|           
   140 |TRAC01  |      1 |      0 |  35 |       0 |
   152 |TRAC02  |     36 |      0 |  35 |       0 |
   164 |TRAC03  |     71 |      0 |  35 |       0 |
   176 |TRAC04  |    106 |      0 |  35 |       0 |
   188 |TRAC05  |    141 |      0 |  35 |       0 |
   200 |TRAC06  |    176 |      0 |  35 |       0 |
   212 |TRAC07  |    211 |      0 |  35 |       0 |
   224 |TRAC08  |    246 |      0 |  35 |       0 |
   236 |TRAC09  |    281 |      0 |  35 |       0 |
   248 |TRAC10  |    316 |      0 |  35 |       0 |
   260 |TRAC11  |    351 |      0 |  35 |       0 |
   272 |TRAC12  |    386 |      0 |  35 |       0 |
   284 |TRAC13  |    421 |      0 |  35 |       0 |
   296 |TRAC14  |    456 |      0 |  35 |       0 |
   308 |TRAC15  |    491 |      0 |  35 |       0 |
   320 |TRAC16  |    526 |      0 |  35 |       0 |
   332 |TRAC17  |    561 |      0 |  35 |       0 |
   344 |TRAC18  |    596 |      0 |  35 |       0 |
   356 |TRAC19  |    631 |      0 |  35 |       0 |
   368 |TRAC20  |    666 |      0 |  35 |       0 |
   380 |TRAC21  |    701 |      0 |  35 |       0 |
   392 |TRAC22  |    736 |      0 |  35 |       0 |
   404 |TRAC23  |    771 |      0 |  35 |       0 |
   416 |TRAC24  |    806 |      0 |  35 |       0 |
   428 |TRAC25  |    841 |      0 |  35 |       0 |
   440 |TRAC26  |    876 |      0 |  35 |       0 |
   452 |TRAC27  |    911 |      0 |  35 |       0 |
   464 |TRAC28  |    946 |      0 |  35 |       0 |
   476 |TRAC29  |    981 |      0 |  35 |       0 |
   488 |TRAC30  |   1016 |      0 |  35 |       0 |
   500 |TRAC31  |   1051 |      0 |  35 |       0 |
   512 |TRAC32  |   1086 |      0 |  35 |       0 |
   524 |TRAC33  |   1121 |      0 |  35 |       0 |
   536 |TRAC34  |   1156 |      0 |  35 |       0 |
   548 |TRAC35  |   1191 |      0 |  35 |       0 |
   560 |TRAC36  |   1226 |      0 |  35 |       0 |
   572 |TRAC37  |   1261 |      0 |  35 |       0 |
   584 |TRAC38  |   1296 |      0 |  35 |       0 |
   596 |TRAC39  |   1331 |      0 |  35 |       0 |
   608 |TRAC40  |   1366 |      0 |  35 |       0 |
   620 |TRAC41  |   1401 |      0 |  35 |       0 |
   632 |TRAC42  |   1436 |      0 |  35 |       0 |
   644 |TRAC43  |   1471 |      0 |  35 |       0 |
   656 |TRAC44  |   1506 |      0 |  35 |       0 |
   668 |TRAC45  |   1541 |      0 |  35 |       0 |
   680 |TRAC46  |   1576 |      0 |  35 |       0 |
   692 |TRAC47  |   1611 |      0 |  35 |       0 |
   704 |TRAC48  |   1646 |      0 |  35 |       0 |
   716 |TRAC49  |   1681 |      0 |  35 |       0 |
   728 |TRAC50  |   1716 |      0 |  35 |       0 |
   740 |TRAC51  |   1751 |      0 |  35 |       0 |
   752 |TRAC52  |   1786 |      0 |  35 |       0 |
   764 |TRAC53  |   1821 |      0 |  35 |       0 |
   776 |TRAC54  |   1856 |      0 |  35 |       0 |
   788 |TRAC55  |   1891 |      0 |  35 |       0 |
   800 |TRAC56  |   1926 |      0 |  35 |       0 |
   812 |TRAC57  |   1961 |      0 |  35 |       0 |
   824 |TRAC58  |   1996 |      0 |  35 |       0 |
   836 |TRAC59  |   2031 |      0 |  35 |       0 |
   848 |TRAC60  |   2066 |      0 |  35 |       0 |
   860 |TRAC61  |   2101 |      0 |  35 |       0 |
   872 |TRAC62  |   2136 |      0 |  35 |       0 |
   884 |TRAC63  |   2171 |      0 |  35 |       0 |
   896 |TRAC64  |   2206 |      0 |  35 |       0 |
   908 |TRAC65  |   2241 |      0 |  35 |       0 |
   920 |TRAC66  |   2276 |      0 |  35 |       0 |
   932 |TRAC67  |   2311 |      0 |  35 |       0 |
   944 |TRAC68  |   2346 |      0 |  35 |       0 |
   956 |TRAC69  |   2381 |      0 |  35 |       0 |
   968 |TRAC70  |   2416 |      0 |  35 |       0 |
   980 |TRAC71  |   2451 |      0 |  35 |       0 |
   992 |TRAC72  |   2486 |      0 |  35 |       0 |
  1004 |TRAC73  |   2521 |      0 |  35 |       0 |
  1016 |TRAC74  |   2556 |      0 |  35 |       0 |
  1028 |TRAC75  |   2591 |      0 |  35 |       0 |
  1040 |TRAC76  |   2626 |      0 |  35 |       0 |
  1052 |TRAC77  |   2661 |      0 |  35 |       0 |
  1064 |TRAC78  |   2696 |      0 |  35 |       0 |
  1076 |TRAC79  |   2731 |      0 |  35 |       0 |
  1088 |TRAC80  |   2766 |      0 |  35 |       0 |
  1100 |TRAC81  |   2801 |      0 |  35 |       0 |
  1112 |TRAC82  |   2836 |      0 |  35 |       0 |
  1124 |TRAC83  |   2871 |      0 |  35 |       0 |
  1136 |TRAC84  |   2906 |      0 |  35 |       0 |
  1148 |TRAC85  |   2941 |      0 |  35 |       0 |
  1160 |TRAC86  |   2976 |      0 |  35 |       0 |
  1172 |TRAC87  |   3011 |      0 |  35 |       0 |
  1184 |TRAC88  |   3046 |      0 |  35 |       0 |
  1196 |TRAC89  |   3081 |      0 |  35 |       0 |
  1208 |TRAC90  |   3116 |      0 |  35 |       0 |
  1220 |TRAC91  |   3151 |      0 |  35 |       0 |
  1232 |TRAC92  |   3186 |      0 |  35 |       0 |
  1244 |TRAC93  |   3221 |      0 |  35 |       0 |
  1256 |TRAC94  |   3256 |      0 |  35 |       0 |
  1268 |TRAC95  |   3291 |      0 |  35 |       0 |
  1280 |TRAC96  |   3326 |      0 |  35 |       0 |
  1292 |TRAC97  |   3361 |      0 |  35 |       0 |
  1304 |TRAC98  |   3396 |      0 |  35 |       0 |
  1316 |TRAC99  |   3431 |      0 |  35 |       0 |
  1328 |TRAC0a  |   3466 |      0 |  35 |       0 |
  1340 |TRAC0b  |   3501 |      0 |  35 |       0 |
  1352 |TRAC0c  |   3536 |      0 |  35 |       0 |
  1364 |TRAC0d  |   3571 |      0 |  35 |       0 |
  1376 |TRAC0e  |   3606 |      0 |  35 |       0 |
  1388 |TRAC0f  |   3641 |      0 |  35 |       0 |
  1400 |TRAC0g  |   3676 |      0 |  35 |       0 |
  1412 |TRAC0h  |   3711 |      0 |  35 |       0 |
  1424 |TRAC0i  |   3746 |      0 |  35 |       0 |
  1436 |TRAC0j  |   3781 |      0 |  35 |       0 |
  1448 |TRAC0k  |   3816 |      0 |  35 |       0 |
  1460 |TRAC0l  |   3851 |      0 |  35 |       0 |
  1472 |TRAC0m  |   3886 |      0 |  35 |       0 |
  1484 |TRAC0n  |   3921 |      0 |  35 |       0 |
  1496 |TRAC0o  |   3956 |      0 |  35 |       0 |
  1508 |TRAC0p  |   3991 |      0 |  35 |       0 |
  1520 |TRAC0q  |   4026 |      0 |  35 |       0 |
  1532 |TRAC0r  |   4061 |      0 |  35 |       0 |
  1544 |TRAC0s  |   4096 |      0 |  35 |       0 |
  1556 |TRAC0t  |   4131 |      0 |  35 |       0 |
  1568 |TRAC0u  |   4166 |      0 |  35 |       0 |
  1580 |TRAC0v  |   4201 |      0 |  35 |       0 |
  1592 |TRAC0w  |   4236 |      0 |  35 |       0 |
  1604 |TRAC0x  |   4271 |      0 |  35 |       0 |
  1616 |TRAC0y  |   4306 |      0 |  35 |       0 |
  1628 |TRAC0z  |   4341 |      0 |  35 |       0 |
  1640 |TRAC0A  |   4376 |      0 |  35 |       0 |
  1652 |TRAC0B  |   4411 |      0 |  35 |       0 |
  1664 |TRAC0C  |   4446 |      0 |  35 |       0 |
  1676 |TRAC0D  |   4481 |      0 |  35 |       0 |
  1688 |TRAC0E  |   4516 |      0 |  35 |       0 |
  1700 |TRAC0F  |   4551 |      0 |  35 |       0 |
  1712 |TRAC0G  |   4586 |      0 |  35 |       0 |
  1724 |TRAC0H  |   4621 |      0 |  35 |       0 |
  1736 |TRAC0I  |   4656 |      0 |  35 |       0 |
  1748 |TRAC0J  |   4691 |      0 |  35 |       0 |
  1760 |TRAC0K  |   4726 |      0 |  35 |       0 |
  1772 |TRAC0L  |   4761 |      0 |  35 |       0 |
  1784 |TRAC0M  |   4796 |      0 |  35 |       0 |
  1796 |TRAC0N  |   4831 |      0 |  35 |       0 |
  1808 |TRAC0O  |   4866 |      0 |  35 |       0 |
  1820 |TRAC0P  |   4901 |      0 |  35 |       0 |
  1832 |TRAC0Q  |   4936 |      0 |  35 |       0 |
  1844 |TRAC0R  |   4971 |      0 |  35 |       0 |
  1856 |TRAC0S  |   5006 |      0 |  35 |       0 |
  1868 |TRAC0T  |   5041 |      0 |  35 |       0 |
  1880 |TRAC0U  |   5076 |      0 |  35 |       0 |
  1892 |TRAC0V  |   5111 |      0 |  35 |       0 |
  1904 |TRAC0W  |   5146 |      0 |  35 |       0 |
  1916 |TRAC0X  |   5181 |      0 |  35 |       0 |
  1928 |TRAC0Y  |   5216 |      0 |  35 |       0 |
  1940 |TRAC0Z  |   5251 |      0 |  35 |       0 |
  1952 |TRAC1a  |   5286 |      0 |  35 |       0 |
  1964 |TRAC1b  |   5321 |      0 |  35 |       0 |
  1976 |TRAC1c  |   5356 |      0 |  35 |       0 |
  1988 |TRAC1d  |   5391 |      0 |  35 |       0 |
  2000 |TRAC1e  |   5426 |      0 |  35 |       0 |
  2012 |TRAC1f  |   5461 |      0 |  35 |       0 |
  2024 |TRAC1g  |   5496 |      0 |  35 |       0 |
  2036 |TRAC1h  |   5531 |      0 |  35 |       0 |
  2048 |TRAC1i  |   5566 |      0 |  35 |       0 |
  2060 |TRAC1j  |   5601 |      0 |  35 |       0 |
  2072 |TRAC1k  |   5636 |      0 |  35 |       0 |
  2084 |TRAC1l  |   5671 |      0 |  35 |       0 |
  2096 |TRAC1m  |   5706 |      0 |  35 |       0 |
  2108 |TRAC1n  |   5741 |      0 |  35 |       0 |
  2120 |TRAC1o  |   5776 |      0 |  35 |       0 |
  2132 |TRAC1p  |   5811 |      0 |  35 |       0 |
  2144 |TRAC1q  |   5846 |      0 |  35 |       0 |
  2156 |TRAC1r  |   5881 |      0 |  35 |       0 |
  2168 |TRAC1s  |   5916 |      0 |  35 |       0 |
  2180 |TRAC1t  |   5951 |      0 |  35 |       0 |
  2192 |TRAC1u  |   5986 |      0 |  35 |       0 |
  2204 |TRAC1v  |   6021 |      0 |  35 |       0 |
  2216 |TRAC1w  |   6056 |      0 |  35 |       0 |
  2228 |TRAC1x  |   6091 |      0 |  35 |       0 |
  2245 |PAR01   |   6126 |      0 |  35 |       0 |
  2252 |DIC_c01 |   6161 |      0 |  35 |       0 |
  2263 |DIC_c02 |   6196 |      0 |  35 |       0 |
  2253 |c01_DOC |   6231 |      0 |  35 |       0 |
  2264 |c02_DOC |   6266 |      0 |  35 |       0 |
  2254 |c01_POC |   6301 |      0 |  35 |       0 |
  2265 |c02_POC |   6336 |      0 |  35 |       0 |
  2244 |PARF    |   6371 |      0 |  35 |       0 |
  2241 |atten   |   6406 |      0 |  35 |       0 |
  2243 |surfPAR |   6441 |      0 |  35 |       0 |
  2242 |exfPAR  |   6476 |      0 |  35 |       0 |
  2246 |limn01  |   6511 |      0 |  35 |       0 |
  2247 |limp01  |   6546 |      0 |  35 |       0 |
  2248 |limsi01 |   6581 |      0 |  35 |       0 |
  2249 |limfe01 |   6616 |      0 |  35 |       0 |
  2250 |limI01  |   6651 |      0 |  35 |       0 |
  2251 |limT01  |   6686 |      0 |  35 |       0 |
  2255 |c01_c   |   6721 |      0 |  35 |       0 |
  2266 |c02_c   |   6756 |      0 |  35 |       0 |
  2278 |c_c03   |   6791 |      0 |  35 |       0 |
  2289 |c_c04   |   6826 |      0 |  35 |       0 |
  3126 |c_DOC   |   6861 |      0 |  35 |       0 |
  3127 |c_POC   |   6896 |      0 |  35 |       0 |
  3128 |c_PIC   |   6931 |      0 |  35 |       0 |
  3129 |n_DON   |   6966 |      0 |  35 |       0 |
  3130 |n_PON   |   7001 |      0 |  35 |       0 |
  3131 |p_DOP   |   7036 |      0 |  35 |       0 |
  3132 |p_POP   |   7071 |      0 |  35 |       0 |
------------------------------------------------------------------------
Global & Regional Statistics diagnostics: Number of lists:     0
------------------------------------------------------------------------
(PID.TID 0000.0001)  MDS_READ_FIELD: opening global file: input/loc1_NH4_run83_janprof.bin
(PID.TID 0000.0001)  MDS_READ_FIELD: opening global file: input/loc1_NO2_run83_janprof.bin
(PID.TID 0000.0001)  MDS_READ_FIELD: opening global file: input/loc1_nitr_janprof.bin
(PID.TID 0000.0001)  MDS_READ_FIELD: opening global file: input/loc1_phos_janprof.bin
(PID.TID 0000.0001)  MDS_READ_FIELD: opening global file: input/loc1_sil_janprof.bin
(PID.TID 0000.0001)  MDS_READ_FIELD: opening global file: input/fet_uniform.bin
(PID.TID 0000.0001)  MDS_READ_FIELD: opening global file: input/loc1_DON_run83_janprof.bin
(PID.TID 0000.0001)  MDS_READ_FIELD: opening global file: input/loc1_DOP_run83_janprof.bin
(PID.TID 0000.0001)  MDS_READ_FIELD: opening global file: input/loc1_DOFe_run83_janprof.bin
(PID.TID 0000.0001)  MDS_READ_FIELD: opening global file: input/loc1_PON_run83_janprof.bin
(PID.TID 0000.0001)  MDS_READ_FIELD: opening global file: input/loc1_POP_run83_janprof.bin
(PID.TID 0000.0001)  MDS_READ_FIELD: opening global file: input/loc1_POSi_run83_janprof.bin
(PID.TID 0000.0001)  MDS_READ_FIELD: opening global file: input/loc1_POFe_run83_janprof.bin
(PID.TID 0000.0001)  MDS_READ_FIELD: opening global file: input/loc1_biomass_run83_janprof.bin
(PID.TID 0000.0001)  MDS_READ_FIELD: opening global file: input/loc1_biomass_run83_janprof.bin
(PID.TID 0000.0001)  MDS_READ_FIELD: opening global file: input/loc1_biomass_run83_janprof.bin
(PID.TID 0000.0001)  MDS_READ_FIELD: opening global file: input/loc1_biomass_run83_janprof.bin
(PID.TID 0000.0001)  MDS_READ_FIELD: opening global file: input/loc1_biomass_run83_janprof.bin
(PID.TID 0000.0001)  MDS_READ_FIELD: opening global file: input/loc1_biomass_run83_janprof.bin
(PID.TID 0000.0001)  MDS_READ_FIELD: opening global file: input/loc1_biomass_run83_janprof.bin
(PID.TID 0000.0001)  MDS_READ_FIELD: opening global file: input/loc1_biomass_run83_janprof.bin
(PID.TID 0000.0001)  MDS_READ_FIELD: opening global file: input/loc1_biomass_run83_janprof.bin
(PID.TID 0000.0001)  MDS_READ_FIELD: opening global file: input/loc1_biomass_run83_janprof.bin
(PID.TID 0000.0001)  MDS_READ_FIELD: opening global file: input/loc1_biomass_run83_janprof.bin
(PID.TID 0000.0001)  MDS_READ_FIELD: opening global file: input/loc1_biomass_run83_janprof.bin
(PID.TID 0000.0001)  MDS_READ_FIELD: opening global file: input/loc1_biomass_run83_janprof.bin
(PID.TID 0000.0001)  MDS_READ_FIELD: opening global file: input/loc1_biomass_run83_janprof.bin
(PID.TID 0000.0001)  MDS_READ_FIELD: opening global file: input/loc1_biomass_run83_janprof.bin
(PID.TID 0000.0001)  MDS_READ_FIELD: opening global file: input/loc1_biomass_run83_janprof.bin
(PID.TID 0000.0001)  MDS_READ_FIELD: opening global file: input/loc1_biomass_run83_janprof.bin
(PID.TID 0000.0001)  MDS_READ_FIELD: opening global file: input/loc1_biomass_run83_janprof.bin
(PID.TID 0000.0001)  MDS_READ_FIELD: opening global file: input/loc1_biomass_run83_janprof.bin
(PID.TID 0000.0001)  MDS_READ_FIELD: opening global file: input/loc1_biomass_run83_janprof.bin
(PID.TID 0000.0001)  MDS_READ_FIELD: opening global file: input/loc1_biomass_run83_janprof.bin
(PID.TID 0000.0001)  MDS_READ_FIELD: opening global file: input/loc1_biomass_run83_janprof.bin
(PID.TID 0000.0001)  MDS_READ_FIELD: opening global file: input/loc1_biomass_run83_janprof.bin
(PID.TID 0000.0001)  MDS_READ_FIELD: opening global file: input/loc1_biomass_run83_janprof.bin
(PID.TID 0000.0001)  MDS_READ_FIELD: opening global file: input/loc1_biomass_run83_janprof.bin
(PID.TID 0000.0001)  MDS_READ_FIELD: opening global file: input/loc1_biomass_run83_janprof.bin
(PID.TID 0000.0001)  MDS_READ_FIELD: opening global file: input/loc1_biomass_run83_janprof.bin
(PID.TID 0000.0001)  MDS_READ_FIELD: opening global file: input/loc1_biomass_run83_janprof.bin
(PID.TID 0000.0001)  MDS_READ_FIELD: opening global file: input/loc1_biomass_run83_janprof.bin
(PID.TID 0000.0001)  MDS_READ_FIELD: opening global file: input/loc1_biomass_run83_janprof.bin
(PID.TID 0000.0001)  MDS_READ_FIELD: opening global file: input/loc1_biomass_run83_janprof.bin
(PID.TID 0000.0001)  MDS_READ_FIELD: opening global file: input/loc1_biomass_run83_janprof.bin
(PID.TID 0000.0001)  MDS_READ_FIELD: opening global file: input/loc1_biomass_run83_janprof.bin
(PID.TID 0000.0001)  MDS_READ_FIELD: opening global file: input/loc1_biomass_run83_janprof.bin
(PID.TID 0000.0001)  MDS_READ_FIELD: opening global file: input/loc1_biomass_run83_janprof.bin
(PID.TID 0000.0001)  MDS_READ_FIELD: opening global file: input/loc1_biomass_run83_janprof.bin
(PID.TID 0000.0001)  MDS_READ_FIELD: opening global file: input/loc1_biomass_run83_janprof.bin
(PID.TID 0000.0001)  MDS_READ_FIELD: opening global file: input/loc1_biomass_run83_janprof.bin
(PID.TID 0000.0001)  MDS_READ_FIELD: opening global file: input/loc1_biomass_run83_janprof.bin
(PID.TID 0000.0001)  MDS_READ_FIELD: opening global file: input/loc1_biomass_run83_janprof.bin
(PID.TID 0000.0001)  MDS_READ_FIELD: opening global file: input/loc1_biomass_run83_janprof.bin
(PID.TID 0000.0001)  MDS_READ_FIELD: opening global file: input/loc1_biomass_run83_janprof.bin
(PID.TID 0000.0001)  MDS_READ_FIELD: opening global file: input/loc1_biomass_run83_janprof.bin
(PID.TID 0000.0001)  MDS_READ_FIELD: opening global file: input/loc1_biomass_run83_janprof.bin
(PID.TID 0000.0001)  MDS_READ_FIELD: opening global file: input/loc1_biomass_run83_janprof.bin
(PID.TID 0000.0001)  MDS_READ_FIELD: opening global file: input/loc1_biomass_run83_janprof.bin
(PID.TID 0000.0001)  MDS_READ_FIELD: opening global file: input/loc1_biomass_run83_janprof.bin
(PID.TID 0000.0001)  MDS_READ_FIELD: opening global file: input/loc1_biomass_run83_janprof.bin
(PID.TID 0000.0001)  MDS_READ_FIELD: opening global file: input/loc1_biomass_run83_janprof.bin
(PID.TID 0000.0001)  MDS_READ_FIELD: opening global file: input/loc1_biomass_run83_janprof.bin
(PID.TID 0000.0001)  MDS_READ_FIELD: opening global file: input/loc1_biomass_run83_janprof.bin
(PID.TID 0000.0001)  MDS_READ_FIELD: opening global file: input/loc1_biomass_run83_janprof.bin
(PID.TID 0000.0001)  MDS_READ_FIELD: opening global file: input/loc1_biomass_run83_janprof.bin
(PID.TID 0000.0001)  MDS_READ_FIELD: opening global file: input/loc1_biomass_run83_janprof.bin
(PID.TID 0000.0001)  MDS_READ_FIELD: opening global file: input/loc1_biomass_run83_janprof.bin
(PID.TID 0000.0001)  MDS_READ_FIELD: opening global file: input/loc1_biomass_run83_janprof.bin
(PID.TID 0000.0001)  MDS_READ_FIELD: opening global file: input/loc1_biomass_run83_janprof.bin
(PID.TID 0000.0001)  MDS_READ_FIELD: opening global file: input/loc1_biomass_run83_janprof.bin
(PID.TID 0000.0001)  MDS_READ_FIELD: opening global file: input/loc1_biomass_run83_janprof.bin
(PID.TID 0000.0001)  MDS_READ_FIELD: opening global file: input/loc1_biomass_run83_janprof.bin
(PID.TID 0000.0001)  MDS_READ_FIELD: opening global file: input/loc1_biomass_run83_janprof.bin
(PID.TID 0000.0001)  MDS_READ_FIELD: opening global file: input/loc1_biomass_run83_janprof.bin
(PID.TID 0000.0001)  MDS_READ_FIELD: opening global file: input/loc1_biomass_run83_janprof.bin
(PID.TID 0000.0001)  MDS_READ_FIELD: opening global file: input/loc1_biomass_run83_janprof.bin
(PID.TID 0000.0001)  MDS_READ_FIELD: opening global file: input/loc1_biomass_run83_janprof.bin
(PID.TID 0000.0001)  MDS_READ_FIELD: opening global file: input/loc1_biomass_run83_janprof.bin
(PID.TID 0000.0001)  MDS_READ_FIELD: opening global file: input/loc1_biomass_run83_janprof.bin
(PID.TID 0000.0001)  MDS_READ_FIELD: opening global file: input/loc1_biomass_run83_janprof.bin
(PID.TID 0000.0001)  MDS_READ_FIELD: opening global file: input/loc1_biomass_run83_janprof.bin
(PID.TID 0000.0001)  MDS_READ_FIELD: opening global file: input/loc1_biomass_run83_janprof.bin
(PID.TID 0000.0001)  MDS_READ_FIELD: opening global file: input/loc1_biomass_run83_janprof.bin
(PID.TID 0000.0001)  MDS_READ_FIELD: opening global file: input/loc1_biomass_run83_janprof.bin
(PID.TID 0000.0001)  MDS_READ_FIELD: opening global file: input/loc1_biomass_run83_janprof.bin
(PID.TID 0000.0001)  MDS_READ_FIELD: opening global file: input/loc1_biomass_run83_janprof.bin
(PID.TID 0000.0001)  MDS_READ_FIELD: opening global file: input/loc1_biomass_run83_janprof.bin
(PID.TID 0000.0001)  MDS_READ_FIELD: opening global file: input/loc1_biomass_run83_janprof.bin
(PID.TID 0000.0001)  MDS_READ_FIELD: opening global file: input/loc1_biomass_run83_janprof.bin
(PID.TID 0000.0001)  MDS_READ_FIELD: opening global file: input/loc1_biomass_run83_janprof.bin
(PID.TID 0000.0001)  MDS_READ_FIELD: opening global file: input/loc1_ZOOP_run83_janprof.bin
(PID.TID 0000.0001)  MDS_READ_FIELD: opening global file: input/loc1_ZOOP_run83_janprof.bin
(PID.TID 0000.0001)  MDS_READ_FIELD: opening global file: input/loc1_PAR_monsurf.bin
(PID.TID 0000.0001)  MDS_READ_FIELD: opening global file: input/loc1_PAR_monsurf.bin
 exf          12           1  0.50000000000000000       0.50000000000000000     
(PID.TID 0000.0001)  MDS_READ_FIELD: opening global file: input/loc1_FeFlux_monsurf.bin
(PID.TID 0000.0001)  MDS_READ_FIELD: opening global file: input/loc1_FeFlux_monsurf.bin
 exf          12           1  0.50000000000000000       0.50000000000000000     
 PAR           1   561.45634666632031        685.76433040477616       0.20000000000000001     
 PAR           2   376.35544414436970        459.68157752652894       0.20000000000000001     
 PAR           3   252.27859864461738        308.13377620931817       0.20000000000000001     
 PAR           4   169.10740185726650        206.54824705376555       0.20000000000000001     
 PAR           5   113.35608139793024        138.45343047366072       0.20000000000000001     
 PAR           6   75.984853701080269        92.808109888896439       0.20000000000000001     
 PAR           7   50.934170630919446        62.211136493205736       0.20000000000000001     
 PAR           8   34.142195602105033        41.701371878055113       0.20000000000000001     
 PAR           9   22.886198127760849        27.953265517047218       0.20000000000000001     
 PAR          10   15.341077382581414        18.737634228233539       0.20000000000000001     
 PAR          11   10.283431697328279        12.560211838468478       0.20000000000000001     
 PAR          12   6.8931904087574454        8.4193617777795726       0.20000000000000001     
 PAR          13   4.6206437121307182        5.6436669744719055       0.20000000000000001     
 PAR          14   3.0973101058297505        3.7830631061378250       0.20000000000000001     
 PAR          15   1.8786135418235252        2.5358630354620355       0.29999999999999999     
 PAR          16   1.0310049714765626        1.3917111414022838       0.29999999999999999     
 PAR          17  0.56582752521712731       0.76378726848327227       0.29999999999999999     
 PAR          18  0.31053272986144559       0.41917534044409205       0.29999999999999999     
 PAR          19  0.17042397553600427       0.23004830439939267       0.29999999999999999     
 PAR          20   8.4630041664886427E-002  0.12625318631808730       0.40000000000000002     
 PAR          21   3.8026728954480719E-002   5.6729213424804734E-002  0.40000000000000002     
 PAR          22   1.7086510729883177E-002   2.5490078703352289E-002  0.40000000000000002     
 PAR          23   7.6774641666361981E-003   1.1453430659043733E-002  0.40000000000000002     
 PAR          24   1.8932393542629622E-003   5.1463581336165468E-003   1.0000000000000000     
 PAR          25   2.5622208424387974E-004   6.9648383565004094E-004   1.0000000000000000     
 PAR          26   1.2756546425606637E-005   9.4258837167420705E-005   2.0000000000000000     
 PAR          27   8.5952933707110672E-008   1.7264108236304732E-006   3.0000000000000000     
 PAR          28   2.1305602151735981E-010   4.2793445868943965E-009   3.0000000000000000     
 PAR          29   1.9428194367447533E-013   1.0607434709469884E-011   4.0000000000000000     
 PAR          30   8.8203865969402194E-018   3.5583979229430846E-015   6.0000000000000000     
 PAR          31   7.3344047689519798E-024   2.1863552476204345E-020   8.0000000000000000     
 PAR          32   8.2537852213577840E-031   2.4604186978933462E-027   8.0000000000000000     
 PAR          33   9.2884116198073701E-038   2.7688364804995974E-034   8.0000000000000000     
 PAR          34   1.4146232083021966E-045   3.1159149710208067E-041   10.000000000000000     
 PAR          35   2.9157557501777271E-054   6.4223794297300699E-050   10.000000000000000     
 PAR   561.45634666632031     
 chl           1   7.4857901748454816E-005   8.4621200585388578E-004  0.57464922500000004        5.5347524469845854E-004   2.8935185185185186E-005
 chl           2   8.8198846569355292E-005   8.4621200585388578E-004  0.59752625000000004        4.5837958660327455E-004   2.8935185185185186E-005
 chl           3   2.3337974645353631E-005   8.4621200585388578E-004  0.41672704999999999        1.1196879688055628E-003   1.6534391534391536E-005
 chl           4   1.7817515868654369E-005   8.4621200585388578E-004  0.48268099999999997        1.5020338455936869E-003   1.6534391534391536E-005
 chl           5   1.1644373687191939E-004   8.4621200585388578E-004  0.71857212500000001        3.4001639146335295E-004   2.8935185185185186E-005
 chl           6   2.7893858233051672E-005   8.4621200585388578E-004  0.34045392500000005        9.0607151477394769E-004   1.6534391534391536E-005
 chl           7   2.3832245570854509E-005   8.4621200585388578E-004  0.47021727499999999        1.1038473201688923E-003   1.6534391534391536E-005
 chl           8   2.9750458695788100E-005   8.4621200585388578E-004  0.20631530000000001        7.8031455715041212E-004   1.6534391534391536E-005
 chl           9   1.6053739970553829E-005   8.4621200585388578E-004  0.48217519999999997        1.6745129545614069E-003   1.6534391534391536E-005
 chl          10   1.6963261277022946E-005   8.4621200585388578E-004  0.31824657499999998        1.5457263784912597E-003   1.6534391534391536E-005
 chl          11   9.2199314563824671E-005   8.4621200585388578E-004  0.69576252499999991        4.4796299929484370E-004   2.8935185185185186E-005
 chl          12   1.8179811120487447E-005   8.4621200585388578E-004  0.26045675000000001        1.4122813991128223E-003   1.6534391534391536E-005
 chl          13   8.7897529866345532E-005   8.4621200585388578E-004  0.63692599999999999        4.6627399971121107E-004   2.8935185185185186E-005
 chl          14   5.7787674390898791E-005   8.4621200585388578E-004  0.79737575000000005        7.7484692680967126E-004   2.8935185185185186E-005
 chl          15   2.0172413932643857E-005   8.4621200585388578E-004  0.45297620000000000        1.3141980633601226E-003   1.6534391534391536E-005
 chl          16   1.6309776913670268E-005   8.4621200585388578E-004  0.22400982500000000        1.5681096779356328E-003   1.6534391534391536E-005
 chl          17   3.9878488011700989E-005   8.4621200585388578E-004  0.29264262499999999        5.8871112210254358E-004   1.6534391534391536E-005
 chl          18   3.2516954081327897E-005   8.4621200585388578E-004  0.39804095000000000        7.7749380046476043E-004   1.6534391534391536E-005
 chl          19   3.2512974291705971E-005   8.4621200585388578E-004  0.25900272499999999        7.3300063081684129E-004   1.6534391534391536E-005
 chl          20   1.9179493573523528E-005   8.4621200585388578E-004  0.28488012499999998        1.3429370486487580E-003   1.6534391534391536E-005
 chl          21   1.6319867819821217E-005   8.4621200585388578E-004  0.27845757500000001        1.5959138384070688E-003   1.6534391534391536E-005
 chl          22   6.2167384848740539E-005   8.4621200585388578E-004  0.62580860000000005        6.9524881137770979E-004   2.8935185185185186E-005
 chl          23   1.5810014881922093E-005   8.4621200585388578E-004  0.28050829999999999        1.6520780011331409E-003   1.6534391534391536E-005
 chl          24   1.0954927832871304E-004   8.4621200585388578E-004  0.70395957499999995        3.6481198810117758E-004   2.8935185185185186E-005
 chl          25   6.6591450065931070E-005   8.4621200585388578E-004  0.64319472499999997        6.4541540583410849E-004   2.8935185185185186E-005
 chl          26   6.7272862370767179E-005   8.4621200585388578E-004  0.62149100000000002        6.3482454247567243E-004   2.8935185185185186E-005
 chl          27   2.3955274854223132E-005   8.4621200585388578E-004  0.25301720000000000        1.0374458431458801E-003   1.6534391534391536E-005
 chl          28   5.9355428794280360E-005   8.4621200585388578E-004  0.67896769999999995        7.3980710996184224E-004   2.8935185185185186E-005
 chl          29   2.9255423382669984E-005   8.4621200585388578E-004  0.22490157500000002        8.0947659979626067E-004   1.6534391534391536E-005
 chl          30   8.3340038241924328E-005   8.4621200585388578E-004  0.62362174999999997        4.9480271959802008E-004   2.8935185185185186E-005
 chl          31   3.7002188239461198E-005   8.4621200585388578E-004  0.39144447500000001        6.7177915004817230E-004   1.6534391534391536E-005
 chl          32   1.9082350630632033E-005   8.4621200585388578E-004  0.37002694999999997        1.3770755596232839E-003   1.6534391534391536E-005
 chl          33   6.9313755137377032E-005   8.4621200585388578E-004  0.68650774999999997        6.2220951669623482E-004   2.8935185185185186E-005
 chl          34   3.1475258721189498E-005   8.4621200585388578E-004  0.38600472499999999        8.0338451770675776E-004   1.6534391534391536E-005
 chl          35   9.4658799337631256E-005   8.4621200585388578E-004  0.72825784999999998        4.3787396561905789E-004   2.8935185185185186E-005
 chl          36   6.2290957083744819E-005   8.4621200585388578E-004  0.58776342500000001        6.8770047996185853E-004   2.8935185185185186E-005
 chl          37   1.0052472675890502E-004   8.4621200585388578E-004  0.60825545000000003        3.9200825978607818E-004   2.8935185185185186E-005
 chl          38   3.2280595583088391E-005   8.4621200585388578E-004  0.32592935000000001        7.6541378643806132E-004   1.6534391534391536E-005
 chl          39   2.0394976259648393E-005   8.4621200585388578E-004  0.29977542499999998        1.2617515838335017E-003   1.6534391534391536E-005
 chl          40   7.5731262884482273E-005   8.4621200585388578E-004  0.54211460000000000        5.3988721507024836E-004   2.8935185185185186E-005
 chl          41   1.0304622946578030E-004   8.4621200585388578E-004  0.55902739999999995        3.7170970390251203E-004   2.8935185185185186E-005
 chl          42   1.6272517611201492E-005   8.4621200585388578E-004  0.41345869999999996        1.6396793606297086E-003   1.6534391534391536E-005
 chl          43   2.3201072588811230E-005   8.4621200585388578E-004  0.30791435000000000        1.0987206622674823E-003   1.6534391534391536E-005
 chl          44   4.1384574144671966E-005   8.4621200585388578E-004  0.46273332499999997        6.0471066288532037E-004   1.6534391534391536E-005
 chl          45   5.7977253143254897E-005   8.4621200585388578E-004  0.79574644999999999        7.7192735380700642E-004   2.8935185185185186E-005
 chl          46   5.7156846754263528E-005   8.4621200585388578E-004  0.68642457499999998        7.7246882230773135E-004   2.8935185185185186E-005
 chl          47   1.6194495466881306E-005   8.4621200585388578E-004  0.21378372500000001        1.5732618821008163E-003   1.6534391534391536E-005
 chl          48   8.8660963553995850E-005   8.4621200585388578E-004  0.61206185000000002        4.5778567807977093E-004   2.8935185185185186E-005
 chl          49   6.9693852975886481E-005   8.4621200585388578E-004  0.66328002499999994        6.1540432890083111E-004   2.8935185185185186E-005
 chl          50   5.9619594286627592E-005   8.4621200585388578E-004  0.73348564999999999        7.4248660423067276E-004   2.8935185185185186E-005
 chl          51   1.1838027696915567E-004   8.4621200585388578E-004  0.78312439999999994        3.3977518981682508E-004   2.8935185185185186E-005
 chl          52   3.6488209360336441E-005   8.4621200585388578E-004  0.32829432500000000        6.6618171100008244E-004   1.6534391534391536E-005
 chl          53   8.6908404761562472E-005   8.4621200585388578E-004  0.58888767499999994        4.6520307787557976E-004   2.8935185185185186E-005
 chl          54   7.1626271344017657E-005   8.4621200585388578E-004  0.67621977499999997        5.9811686340443637E-004   2.8935185185185186E-005
 chl          55   2.4335209322279968E-005   8.4621200585388578E-004  0.29539925000000000        1.0379598564312531E-003   1.6534391534391536E-005
 chl          56   6.6428096144776366E-005   8.4621200585388578E-004  0.72802084999999994        6.5770714504913568E-004   2.8935185185185186E-005
 chl          57   5.8644712963245248E-005   8.4621200585388578E-004  0.58183984999999994        7.3557765930240483E-004   2.8935185185185186E-005
 chl          58   1.6834901976850650E-005   8.4621200585388578E-004  0.48265504999999997        1.5936991738476438E-003   1.6534391534391536E-005
 chl          59   3.8540926580899078E-005   8.4621200585388578E-004  0.35035152500000000        6.3167713048753037E-004   1.6534391534391536E-005
 chl          60   1.7258005599698392E-005   8.4621200585388578E-004  0.25244840000000002        1.4904698099495739E-003   1.6534391534391536E-005
 chl          61   1.1176328098161969E-004   8.4621200585388578E-004  0.79724637500000006        3.6557579331518246E-004   2.8935185185185186E-005
 chl          62   9.6985951971361435E-005   8.4621200585388578E-004  0.67781262500000006        4.1954657067736791E-004   2.8935185185185186E-005
 chl          63   3.5061947592329861E-005   8.4621200585388578E-004  0.29001462499999997        6.8408290442901803E-004   1.6534391534391536E-005
 chl          64   2.2843110207234958E-005   8.4621200585388578E-004  0.29666060000000000        1.1135470400138999E-003   1.6534391534391536E-005
 chl          65   1.6790068426628150E-005   8.4621200585388578E-004  0.42998779999999998        1.5897456789825929E-003   1.6534391534391536E-005
 chl          66   1.0357802775699290E-004   8.4621200585388578E-004  0.79728004999999991        4.0020473640852116E-004   2.8935185185185186E-005
 chl          67   7.3040314658878386E-005   8.4621200585388578E-004  0.58276594999999998        5.7115696484148239E-004   2.8935185185185186E-005
 chl          68   6.1167924006817965E-005   8.4621200585388578E-004  0.75269794999999995        7.2370892129895617E-004   2.8935185185185186E-005
 chl          69   6.2471359999197667E-005   8.4621200585388578E-004  0.72932322499999991        7.0454080162376794E-004   2.8935185185185186E-005
 chl          70   6.7243251244845952E-005   8.4621200585388578E-004  0.54949377499999996        6.2294468763655973E-004   2.8935185185185186E-005
 chl          71   4.0159865623666428E-005   8.4621200585388578E-004  0.30882747500000002        5.8971669041942302E-004   1.6534391534391536E-005
 chl          72   3.0330390344726708E-005   8.4621200585388578E-004  0.31626080000000001        8.1805088039437553E-004   1.6534391534391536E-005
 chl          73   1.0722467548909013E-004   8.4621200585388578E-004  0.51902412499999995        3.4521177162159507E-004   2.8935185185185186E-005
 chl          74   1.6980290897710234E-005   8.4621200585388578E-004  0.42084027499999999        1.5694032733583520E-003   1.6534391534391536E-005
 chl          75   2.7506067861693906E-005   8.4621200585388578E-004  0.43697787499999996        9.4167037370615253E-004   1.6534391534391536E-005
 chl          76   2.2800964887504441E-005   8.4621200585388578E-004  0.43549812499999996        1.1513482114659033E-003   1.6534391534391536E-005
 chl          77   4.1065240981593933E-005   8.4621200585388578E-004  0.44862394999999999        6.0772119181614519E-004   1.6534391534391536E-005
 chl          78   2.0677995746004679E-005   8.4621200585388578E-004  0.34162850000000000        1.2564865269426384E-003   1.6534391534391536E-005
(PID.TID 0000.0001) // =======================================================
(PID.TID 0000.0001) // Model current state
(PID.TID 0000.0001) // =======================================================
(PID.TID 0000.0001) 
(PID.TID 0000.0001) // =======================================================
(PID.TID 0000.0001) // Begin MONITOR dynamic field statistics
(PID.TID 0000.0001) // =======================================================
(PID.TID 0000.0001) %MON time_tsnumber                =                     0
(PID.TID 0000.0001) %MON time_secondsf                =   0.00000000000000000E+00
(PID.TID 0000.0001) %MON dynstat_eta_max              =   0.00000000000000000E+00
(PID.TID 0000.0001) %MON dynstat_eta_min              =   0.00000000000000000E+00
(PID.TID 0000.0001) %MON dynstat_eta_mean             =   0.00000000000000000E+00
(PID.TID 0000.0001) %MON dynstat_eta_sd               =   0.00000000000000000E+00
(PID.TID 0000.0001) %MON dynstat_eta_del2             =   0.00000000000000000E+00
(PID.TID 0000.0001) %MON dynstat_uvel_max             =   0.00000000000000000E+00
(PID.TID 0000.0001) %MON dynstat_uvel_min             =   0.00000000000000000E+00
(PID.TID 0000.0001) %MON dynstat_uvel_mean            =   0.00000000000000000E+00
(PID.TID 0000.0001) %MON dynstat_uvel_sd              =   0.00000000000000000E+00
(PID.TID 0000.0001) %MON dynstat_uvel_del2            =   0.00000000000000000E+00
(PID.TID 0000.0001) %MON dynstat_vvel_max             =   0.00000000000000000E+00
(PID.TID 0000.0001) %MON dynstat_vvel_min             =   0.00000000000000000E+00
(PID.TID 0000.0001) %MON dynstat_vvel_mean            =   0.00000000000000000E+00
(PID.TID 0000.0001) %MON dynstat_vvel_sd              =   0.00000000000000000E+00
(PID.TID 0000.0001) %MON dynstat_vvel_del2            =   0.00000000000000000E+00
(PID.TID 0000.0001) %MON dynstat_wvel_max             =   0.00000000000000000E+00
(PID.TID 0000.0001) %MON dynstat_wvel_min             =   0.00000000000000000E+00
(PID.TID 0000.0001) %MON dynstat_wvel_mean            =   0.00000000000000000E+00
(PID.TID 0000.0001) %MON dynstat_wvel_sd              =   0.00000000000000000E+00
(PID.TID 0000.0001) %MON dynstat_wvel_del2            =   0.00000000000000000E+00
(PID.TID 0000.0001) %MON dynstat_theta_max            =   2.63458003997802734E+01
(PID.TID 0000.0001) %MON dynstat_theta_min            =   2.67370009422302246E+00
(PID.TID 0000.0001) %MON dynstat_theta_mean           =   5.47359360270575213E+00
(PID.TID 0000.0001) %MON dynstat_theta_sd             =   5.19720908281054861E+00
(PID.TID 0000.0001) %MON dynstat_theta_del2           =   0.00000000000000000E+00
(PID.TID 0000.0001) %MON dynstat_salt_max             =   3.50000000000000000E+01
(PID.TID 0000.0001) %MON dynstat_salt_min             =   3.50000000000000000E+01
(PID.TID 0000.0001) %MON dynstat_salt_mean            =   3.50000000000000071E+01
(PID.TID 0000.0001) %MON dynstat_salt_sd              =   7.10542735760100186E-15
(PID.TID 0000.0001) %MON dynstat_salt_del2            =   0.00000000000000000E+00
(PID.TID 0000.0001) %MON dynstat_sst_max              =   2.63458003997802734E+01
(PID.TID 0000.0001) %MON dynstat_sst_min              =   2.63458003997802734E+01
(PID.TID 0000.0001) %MON dynstat_sst_mean             =   2.63458003997802734E+01
(PID.TID 0000.0001) %MON dynstat_sst_sd               =   0.00000000000000000E+00
(PID.TID 0000.0001) %MON dynstat_sst_del2             =   0.00000000000000000E+00
(PID.TID 0000.0001) %MON dynstat_sss_max              =   3.50000000000000000E+01
(PID.TID 0000.0001) %MON dynstat_sss_min              =   3.50000000000000000E+01
(PID.TID 0000.0001) %MON dynstat_sss_mean             =   3.50000000000000000E+01
(PID.TID 0000.0001) %MON dynstat_sss_sd               =   0.00000000000000000E+00
(PID.TID 0000.0001) %MON dynstat_sss_del2             =   0.00000000000000000E+00
(PID.TID 0000.0001) %MON forcing_qnet_max             =   0.00000000000000000E+00
(PID.TID 0000.0001) %MON forcing_qnet_min             =   0.00000000000000000E+00
(PID.TID 0000.0001) %MON forcing_qnet_mean            =   0.00000000000000000E+00
(PID.TID 0000.0001) %MON forcing_qnet_sd              =   0.00000000000000000E+00
(PID.TID 0000.0001) %MON forcing_qnet_del2            =   0.00000000000000000E+00
(PID.TID 0000.0001) %MON forcing_qsw_max              =   0.00000000000000000E+00
(PID.TID 0000.0001) %MON forcing_qsw_min              =   0.00000000000000000E+00
(PID.TID 0000.0001) %MON forcing_qsw_mean             =   0.00000000000000000E+00
(PID.TID 0000.0001) %MON forcing_qsw_sd               =   0.00000000000000000E+00
(PID.TID 0000.0001) %MON forcing_qsw_del2             =   0.00000000000000000E+00
(PID.TID 0000.0001) %MON forcing_empmr_max            =   0.00000000000000000E+00
(PID.TID 0000.0001) %MON forcing_empmr_min            =   0.00000000000000000E+00
(PID.TID 0000.0001) %MON forcing_empmr_mean           =   0.00000000000000000E+00
(PID.TID 0000.0001) %MON forcing_empmr_sd             =   0.00000000000000000E+00
(PID.TID 0000.0001) %MON forcing_empmr_del2           =   0.00000000000000000E+00
(PID.TID 0000.0001) %MON forcing_fu_max               =   0.00000000000000000E+00
(PID.TID 0000.0001) %MON forcing_fu_min               =   0.00000000000000000E+00
(PID.TID 0000.0001) %MON forcing_fu_mean              =   0.00000000000000000E+00
(PID.TID 0000.0001) %MON forcing_fu_sd                =   0.00000000000000000E+00
(PID.TID 0000.0001) %MON forcing_fu_del2              =   0.00000000000000000E+00
(PID.TID 0000.0001) %MON forcing_fv_max               =   0.00000000000000000E+00
(PID.TID 0000.0001) %MON forcing_fv_min               =   0.00000000000000000E+00
(PID.TID 0000.0001) %MON forcing_fv_mean              =   0.00000000000000000E+00
(PID.TID 0000.0001) %MON forcing_fv_sd                =   0.00000000000000000E+00
(PID.TID 0000.0001) %MON forcing_fv_del2              =   0.00000000000000000E+00
(PID.TID 0000.0001) %MON advcfl_uvel_max              =   0.00000000000000000E+00
(PID.TID 0000.0001) %MON advcfl_vvel_max              =   0.00000000000000000E+00
(PID.TID 0000.0001) %MON advcfl_wvel_max              =   0.00000000000000000E+00
(PID.TID 0000.0001) %MON advcfl_W_hf_max              =   0.00000000000000000E+00
(PID.TID 0000.0001) %MON pe_b_mean                    =   0.00000000000000000E+00
(PID.TID 0000.0001) %MON ke_max                       =   0.00000000000000000E+00
(PID.TID 0000.0001) %MON ke_mean                      =   0.00000000000000000E+00
(PID.TID 0000.0001) %MON ke_vol                       =   4.11997678834846094E+13
(PID.TID 0000.0001) %MON vort_r_min                   =   0.00000000000000000E+00
(PID.TID 0000.0001) %MON vort_r_max                   =   0.00000000000000000E+00
(PID.TID 0000.0001) %MON vort_a_mean                  =  -4.50678018366247268E-05
(PID.TID 0000.0001) %MON vort_a_sd                    =  -4.13590306276513837E-25
(PID.TID 0000.0001) %MON vort_p_mean                  =  -4.50678018366247268E-05
(PID.TID 0000.0001) %MON vort_p_sd                    =   0.00000000000000000E+00
(PID.TID 0000.0001) %MON surfExpan_theta_mean         =   0.00000000000000000E+00
(PID.TID 0000.0001) %MON surfExpan_salt_mean          =   0.00000000000000000E+00
(PID.TID 0000.0001) // =======================================================
(PID.TID 0000.0001) // End MONITOR dynamic field statistics
(PID.TID 0000.0001) // =======================================================
(PID.TID 0000.0001) // =======================================================
(PID.TID 0000.0001) // Begin MONITOR ptracer field statistics
(PID.TID 0000.0001) // =======================================================
(PID.TID 0000.0001) %MON trcstat_ptracer01_max        =   2.00000000000000000E+03
(PID.TID 0000.0001) %MON trcstat_ptracer01_min        =   2.00000000000000000E+03
(PID.TID 0000.0001) %MON trcstat_ptracer01_mean       =   2.00000000000000000E+03
(PID.TID 0000.0001) %MON trcstat_ptracer01_sd         =   0.00000000000000000E+00
(PID.TID 0000.0001) %MON trcstat_ptracer01_del2       =   0.00000000000000000E+00
(PID.TID 0000.0001) %MON trcstat_ptracer02_max        =   2.55840364843606949E-02
(PID.TID 0000.0001) %MON trcstat_ptracer02_min        =   1.87630746495415224E-07
(PID.TID 0000.0001) %MON trcstat_ptracer02_mean       =   6.03526624968188483E-04
(PID.TID 0000.0001) %MON trcstat_ptracer02_sd         =   3.24253610144675363E-03
(PID.TID 0000.0001) %MON trcstat_ptracer02_del2       =   0.00000000000000000E+00
(PID.TID 0000.0001) %MON trcstat_ptracer03_max        =   1.82584598660469055E-02
(PID.TID 0000.0001) %MON trcstat_ptracer03_min        =   3.87967793358257040E-06
(PID.TID 0000.0001) %MON trcstat_ptracer03_mean       =   6.04744432274620445E-04
(PID.TID 0000.0001) %MON trcstat_ptracer03_sd         =   1.94286808905931216E-03
(PID.TID 0000.0001) %MON trcstat_ptracer03_del2       =   0.00000000000000000E+00
(PID.TID 0000.0001) %MON trcstat_ptracer04_max        =   3.39034996032714844E+01
(PID.TID 0000.0001) %MON trcstat_ptracer04_min        =   4.63000014424324036E-02
(PID.TID 0000.0001) %MON trcstat_ptracer04_mean       =   2.35023898022177420E+01
(PID.TID 0000.0001) %MON trcstat_ptracer04_sd         =   7.81620305993805964E+00
(PID.TID 0000.0001) %MON trcstat_ptracer04_del2       =   0.00000000000000000E+00
(PID.TID 0000.0001) %MON trcstat_ptracer05_max        =   2.24370002746582031E+00
(PID.TID 0000.0001) %MON trcstat_ptracer05_min        =   2.10249990224838257E-01
(PID.TID 0000.0001) %MON trcstat_ptracer05_mean       =   1.58213374543087681E+00
(PID.TID 0000.0001) %MON trcstat_ptracer05_sd         =   4.67350656813797671E-01
(PID.TID 0000.0001) %MON trcstat_ptracer05_del2       =   0.00000000000000000E+00
(PID.TID 0000.0001) %MON trcstat_ptracer06_max        =   3.93874015808105469E+01
(PID.TID 0000.0001) %MON trcstat_ptracer06_min        =   1.22479999065399170E+00
(PID.TID 0000.0001) %MON trcstat_ptracer06_mean       =   2.96218888111551131E+01
(PID.TID 0000.0001) %MON trcstat_ptracer06_sd         =   1.12705885654687581E+01
(PID.TID 0000.0001) %MON trcstat_ptracer06_del2       =   0.00000000000000000E+00
(PID.TID 0000.0001) %MON trcstat_ptracer07_max        =   1.30000000353902578E-03
(PID.TID 0000.0001) %MON trcstat_ptracer07_min        =   1.30000000353902578E-03
(PID.TID 0000.0001) %MON trcstat_ptracer07_mean       =   1.30000000353902578E-03
(PID.TID 0000.0001) %MON trcstat_ptracer07_sd         =   0.00000000000000000E+00
(PID.TID 0000.0001) %MON trcstat_ptracer07_del2       =   0.00000000000000000E+00
(PID.TID 0000.0001) %MON trcstat_ptracer08_max        =   0.00000000000000000E+00
(PID.TID 0000.0001) %MON trcstat_ptracer08_min        =   0.00000000000000000E+00
(PID.TID 0000.0001) %MON trcstat_ptracer08_mean       =   0.00000000000000000E+00
(PID.TID 0000.0001) %MON trcstat_ptracer08_sd         =   0.00000000000000000E+00
(PID.TID 0000.0001) %MON trcstat_ptracer08_del2       =   0.00000000000000000E+00
(PID.TID 0000.0001) %MON trcstat_ptracer09_max        =   8.18150714039802551E-02
(PID.TID 0000.0001) %MON trcstat_ptracer09_min        =   0.00000000000000000E+00
(PID.TID 0000.0001) %MON trcstat_ptracer09_mean       =   3.43576467346997988E-03
(PID.TID 0000.0001) %MON trcstat_ptracer09_sd         =   1.47907448156880464E-02
(PID.TID 0000.0001) %MON trcstat_ptracer09_del2       =   0.00000000000000000E+00
(PID.TID 0000.0001) %MON trcstat_ptracer10_max        =   5.11344196274876595E-03
(PID.TID 0000.0001) %MON trcstat_ptracer10_min        =   0.00000000000000000E+00
(PID.TID 0000.0001) %MON trcstat_ptracer10_mean       =   2.14735292091873742E-04
(PID.TID 0000.0001) %MON trcstat_ptracer10_sd         =   9.24421550980502899E-04
(PID.TID 0000.0001) %MON trcstat_ptracer10_del2       =   0.00000000000000000E+00
(PID.TID 0000.0001) %MON trcstat_ptracer11_max        =   5.11344160258886404E-06
(PID.TID 0000.0001) %MON trcstat_ptracer11_min        =   0.00000000000000000E+00
(PID.TID 0000.0001) %MON trcstat_ptracer11_mean       =   2.14735292398376930E-07
(PID.TID 0000.0001) %MON trcstat_ptracer11_sd         =   9.24421550638722055E-07
(PID.TID 0000.0001) %MON trcstat_ptracer11_del2       =   0.00000000000000000E+00
(PID.TID 0000.0001) %MON trcstat_ptracer12_max        =   0.00000000000000000E+00
(PID.TID 0000.0001) %MON trcstat_ptracer12_min        =   0.00000000000000000E+00
(PID.TID 0000.0001) %MON trcstat_ptracer12_mean       =   0.00000000000000000E+00
(PID.TID 0000.0001) %MON trcstat_ptracer12_sd         =   0.00000000000000000E+00
(PID.TID 0000.0001) %MON trcstat_ptracer12_del2       =   0.00000000000000000E+00
(PID.TID 0000.0001) %MON trcstat_ptracer13_max        =   4.35951026156544685E-03
(PID.TID 0000.0001) %MON trcstat_ptracer13_min        =   1.87657678907271475E-05
(PID.TID 0000.0001) %MON trcstat_ptracer13_mean       =   1.26290934341719832E-03
(PID.TID 0000.0001) %MON trcstat_ptracer13_sd         =   1.54615366301860441E-03
(PID.TID 0000.0001) %MON trcstat_ptracer13_del2       =   0.00000000000000000E+00
(PID.TID 0000.0001) %MON trcstat_ptracer14_max        =   2.72469391347840428E-04
(PID.TID 0000.0001) %MON trcstat_ptracer14_min        =   1.17286049317044672E-06
(PID.TID 0000.0001) %MON trcstat_ptracer14_mean       =   7.89318339635748949E-05
(PID.TID 0000.0001) %MON trcstat_ptracer14_sd         =   9.66346039386627756E-05
(PID.TID 0000.0001) %MON trcstat_ptracer14_del2       =   0.00000000000000000E+00
(PID.TID 0000.0001) %MON trcstat_ptracer15_max        =   1.62530392408370972E-02
(PID.TID 0000.0001) %MON trcstat_ptracer15_min        =   1.13820051774382591E-03
(PID.TID 0000.0001) %MON trcstat_ptracer15_mean       =   5.48946734275322385E-03
(PID.TID 0000.0001) %MON trcstat_ptracer15_sd         =   5.17316926612363445E-03
(PID.TID 0000.0001) %MON trcstat_ptracer15_del2       =   0.00000000000000000E+00
(PID.TID 0000.0001) %MON trcstat_ptracer16_max        =   2.72469407036624034E-07
(PID.TID 0000.0001) %MON trcstat_ptracer16_min        =   1.17286036438457586E-09
(PID.TID 0000.0001) %MON trcstat_ptracer16_mean       =   7.89318344901948163E-08
(PID.TID 0000.0001) %MON trcstat_ptracer16_sd         =   9.66346059972725852E-08
(PID.TID 0000.0001) %MON trcstat_ptracer16_del2       =   0.00000000000000000E+00
(PID.TID 0000.0001) %MON trcstat_ptracer17_max        =   0.00000000000000000E+00
(PID.TID 0000.0001) %MON trcstat_ptracer17_min        =   0.00000000000000000E+00
(PID.TID 0000.0001) %MON trcstat_ptracer17_mean       =   0.00000000000000000E+00
(PID.TID 0000.0001) %MON trcstat_ptracer17_sd         =   0.00000000000000000E+00
(PID.TID 0000.0001) %MON trcstat_ptracer17_del2       =   0.00000000000000000E+00
(PID.TID 0000.0001) %MON trcstat_ptracer18_max        =   8.81538671819726005E-04
(PID.TID 0000.0001) %MON trcstat_ptracer18_min        =   0.00000000000000000E+00
(PID.TID 0000.0001) %MON trcstat_ptracer18_mean       =   2.62848998362252036E-05
(PID.TID 0000.0001) %MON trcstat_ptracer18_sd         =   1.37806948754153421E-04
(PID.TID 0000.0001) %MON trcstat_ptracer18_del2       =   0.00000000000000000E+00
(PID.TID 0000.0001) %MON trcstat_ptracer19_max        =   8.81538671819726005E-04
(PID.TID 0000.0001) %MON trcstat_ptracer19_min        =   0.00000000000000000E+00
(PID.TID 0000.0001) %MON trcstat_ptracer19_mean       =   2.62848998362252036E-05
(PID.TID 0000.0001) %MON trcstat_ptracer19_sd         =   1.37806948754153421E-04
(PID.TID 0000.0001) %MON trcstat_ptracer19_del2       =   0.00000000000000000E+00
(PID.TID 0000.0001) %MON trcstat_ptracer20_max        =   8.81538671819726005E-04
(PID.TID 0000.0001) %MON trcstat_ptracer20_min        =   0.00000000000000000E+00
(PID.TID 0000.0001) %MON trcstat_ptracer20_mean       =   2.62848998362252036E-05
(PID.TID 0000.0001) %MON trcstat_ptracer20_sd         =   1.37806948754153421E-04
(PID.TID 0000.0001) %MON trcstat_ptracer20_del2       =   0.00000000000000000E+00
(PID.TID 0000.0001) %MON trcstat_ptracer21_max        =   8.81538671819726005E-04
(PID.TID 0000.0001) %MON trcstat_ptracer21_min        =   0.00000000000000000E+00
(PID.TID 0000.0001) %MON trcstat_ptracer21_mean       =   2.62848998362252036E-05
(PID.TID 0000.0001) %MON trcstat_ptracer21_sd         =   1.37806948754153421E-04
(PID.TID 0000.0001) %MON trcstat_ptracer21_del2       =   0.00000000000000000E+00
(PID.TID 0000.0001) %MON trcstat_ptracer22_max        =   8.81538671819726005E-04
(PID.TID 0000.0001) %MON trcstat_ptracer22_min        =   0.00000000000000000E+00
(PID.TID 0000.0001) %MON trcstat_ptracer22_mean       =   2.62848998362252036E-05
(PID.TID 0000.0001) %MON trcstat_ptracer22_sd         =   1.37806948754153421E-04
(PID.TID 0000.0001) %MON trcstat_ptracer22_del2       =   0.00000000000000000E+00
(PID.TID 0000.0001) %MON trcstat_ptracer23_max        =   8.81538671819726005E-04
(PID.TID 0000.0001) %MON trcstat_ptracer23_min        =   0.00000000000000000E+00
(PID.TID 0000.0001) %MON trcstat_ptracer23_mean       =   2.62848998362252036E-05
(PID.TID 0000.0001) %MON trcstat_ptracer23_sd         =   1.37806948754153421E-04
(PID.TID 0000.0001) %MON trcstat_ptracer23_del2       =   0.00000000000000000E+00
(PID.TID 0000.0001) %MON trcstat_ptracer24_max        =   8.81538671819726005E-04
(PID.TID 0000.0001) %MON trcstat_ptracer24_min        =   0.00000000000000000E+00
(PID.TID 0000.0001) %MON trcstat_ptracer24_mean       =   2.62848998362252036E-05
(PID.TID 0000.0001) %MON trcstat_ptracer24_sd         =   1.37806948754153421E-04
(PID.TID 0000.0001) %MON trcstat_ptracer24_del2       =   0.00000000000000000E+00
(PID.TID 0000.0001) %MON trcstat_ptracer25_max        =   8.81538671819726005E-04
(PID.TID 0000.0001) %MON trcstat_ptracer25_min        =   0.00000000000000000E+00
(PID.TID 0000.0001) %MON trcstat_ptracer25_mean       =   2.62848998362252036E-05
(PID.TID 0000.0001) %MON trcstat_ptracer25_sd         =   1.37806948754153421E-04
(PID.TID 0000.0001) %MON trcstat_ptracer25_del2       =   0.00000000000000000E+00
(PID.TID 0000.0001) %MON trcstat_ptracer26_max        =   8.81538671819726005E-04
(PID.TID 0000.0001) %MON trcstat_ptracer26_min        =   0.00000000000000000E+00
(PID.TID 0000.0001) %MON trcstat_ptracer26_mean       =   2.62848998362252036E-05
(PID.TID 0000.0001) %MON trcstat_ptracer26_sd         =   1.37806948754153421E-04
(PID.TID 0000.0001) %MON trcstat_ptracer26_del2       =   0.00000000000000000E+00
(PID.TID 0000.0001) %MON trcstat_ptracer27_max        =   8.81538671819726005E-04
(PID.TID 0000.0001) %MON trcstat_ptracer27_min        =   0.00000000000000000E+00
(PID.TID 0000.0001) %MON trcstat_ptracer27_mean       =   2.62848998362252036E-05
(PID.TID 0000.0001) %MON trcstat_ptracer27_sd         =   1.37806948754153421E-04
(PID.TID 0000.0001) %MON trcstat_ptracer27_del2       =   0.00000000000000000E+00
(PID.TID 0000.0001) %MON trcstat_ptracer28_max        =   8.81538671819726005E-04
(PID.TID 0000.0001) %MON trcstat_ptracer28_min        =   0.00000000000000000E+00
(PID.TID 0000.0001) %MON trcstat_ptracer28_mean       =   2.62848998362252036E-05
(PID.TID 0000.0001) %MON trcstat_ptracer28_sd         =   1.37806948754153421E-04
(PID.TID 0000.0001) %MON trcstat_ptracer28_del2       =   0.00000000000000000E+00
(PID.TID 0000.0001) %MON trcstat_ptracer29_max        =   8.81538671819726005E-04
(PID.TID 0000.0001) %MON trcstat_ptracer29_min        =   0.00000000000000000E+00
(PID.TID 0000.0001) %MON trcstat_ptracer29_mean       =   2.62848998362252036E-05
(PID.TID 0000.0001) %MON trcstat_ptracer29_sd         =   1.37806948754153421E-04
(PID.TID 0000.0001) %MON trcstat_ptracer29_del2       =   0.00000000000000000E+00
(PID.TID 0000.0001) %MON trcstat_ptracer30_max        =   8.81538671819726005E-04
(PID.TID 0000.0001) %MON trcstat_ptracer30_min        =   0.00000000000000000E+00
(PID.TID 0000.0001) %MON trcstat_ptracer30_mean       =   2.62848998362252036E-05
(PID.TID 0000.0001) %MON trcstat_ptracer30_sd         =   1.37806948754153421E-04
(PID.TID 0000.0001) %MON trcstat_ptracer30_del2       =   0.00000000000000000E+00
(PID.TID 0000.0001) %MON trcstat_ptracer31_max        =   8.81538671819726005E-04
(PID.TID 0000.0001) %MON trcstat_ptracer31_min        =   0.00000000000000000E+00
(PID.TID 0000.0001) %MON trcstat_ptracer31_mean       =   2.62848998362252036E-05
(PID.TID 0000.0001) %MON trcstat_ptracer31_sd         =   1.37806948754153421E-04
(PID.TID 0000.0001) %MON trcstat_ptracer31_del2       =   0.00000000000000000E+00
(PID.TID 0000.0001) %MON trcstat_ptracer32_max        =   8.81538671819726005E-04
(PID.TID 0000.0001) %MON trcstat_ptracer32_min        =   0.00000000000000000E+00
(PID.TID 0000.0001) %MON trcstat_ptracer32_mean       =   2.62848998362252036E-05
(PID.TID 0000.0001) %MON trcstat_ptracer32_sd         =   1.37806948754153421E-04
(PID.TID 0000.0001) %MON trcstat_ptracer32_del2       =   0.00000000000000000E+00
(PID.TID 0000.0001) %MON trcstat_ptracer33_max        =   8.81538671819726005E-04
(PID.TID 0000.0001) %MON trcstat_ptracer33_min        =   0.00000000000000000E+00
(PID.TID 0000.0001) %MON trcstat_ptracer33_mean       =   2.62848998362252036E-05
(PID.TID 0000.0001) %MON trcstat_ptracer33_sd         =   1.37806948754153421E-04
(PID.TID 0000.0001) %MON trcstat_ptracer33_del2       =   0.00000000000000000E+00
(PID.TID 0000.0001) %MON trcstat_ptracer34_max        =   8.81538671819726005E-04
(PID.TID 0000.0001) %MON trcstat_ptracer34_min        =   0.00000000000000000E+00
(PID.TID 0000.0001) %MON trcstat_ptracer34_mean       =   2.62848998362252036E-05
(PID.TID 0000.0001) %MON trcstat_ptracer34_sd         =   1.37806948754153421E-04
(PID.TID 0000.0001) %MON trcstat_ptracer34_del2       =   0.00000000000000000E+00
(PID.TID 0000.0001) %MON trcstat_ptracer35_max        =   8.81538671819726005E-04
(PID.TID 0000.0001) %MON trcstat_ptracer35_min        =   0.00000000000000000E+00
(PID.TID 0000.0001) %MON trcstat_ptracer35_mean       =   2.62848998362252036E-05
(PID.TID 0000.0001) %MON trcstat_ptracer35_sd         =   1.37806948754153421E-04
(PID.TID 0000.0001) %MON trcstat_ptracer35_del2       =   0.00000000000000000E+00
(PID.TID 0000.0001) %MON trcstat_ptracer36_max        =   8.81538671819726005E-04
(PID.TID 0000.0001) %MON trcstat_ptracer36_min        =   0.00000000000000000E+00
(PID.TID 0000.0001) %MON trcstat_ptracer36_mean       =   2.62848998362252036E-05
(PID.TID 0000.0001) %MON trcstat_ptracer36_sd         =   1.37806948754153421E-04
(PID.TID 0000.0001) %MON trcstat_ptracer36_del2       =   0.00000000000000000E+00
(PID.TID 0000.0001) %MON trcstat_ptracer37_max        =   8.81538671819726005E-04
(PID.TID 0000.0001) %MON trcstat_ptracer37_min        =   0.00000000000000000E+00
(PID.TID 0000.0001) %MON trcstat_ptracer37_mean       =   2.62848998362252036E-05
(PID.TID 0000.0001) %MON trcstat_ptracer37_sd         =   1.37806948754153421E-04
(PID.TID 0000.0001) %MON trcstat_ptracer37_del2       =   0.00000000000000000E+00
(PID.TID 0000.0001) %MON trcstat_ptracer38_max        =   8.81538671819726005E-04
(PID.TID 0000.0001) %MON trcstat_ptracer38_min        =   0.00000000000000000E+00
(PID.TID 0000.0001) %MON trcstat_ptracer38_mean       =   2.62848998362252036E-05
(PID.TID 0000.0001) %MON trcstat_ptracer38_sd         =   1.37806948754153421E-04
(PID.TID 0000.0001) %MON trcstat_ptracer38_del2       =   0.00000000000000000E+00
(PID.TID 0000.0001) %MON trcstat_ptracer39_max        =   8.81538671819726005E-04
(PID.TID 0000.0001) %MON trcstat_ptracer39_min        =   0.00000000000000000E+00
(PID.TID 0000.0001) %MON trcstat_ptracer39_mean       =   2.62848998362252036E-05
(PID.TID 0000.0001) %MON trcstat_ptracer39_sd         =   1.37806948754153421E-04
(PID.TID 0000.0001) %MON trcstat_ptracer39_del2       =   0.00000000000000000E+00
(PID.TID 0000.0001) %MON trcstat_ptracer40_max        =   8.81538671819726005E-04
(PID.TID 0000.0001) %MON trcstat_ptracer40_min        =   0.00000000000000000E+00
(PID.TID 0000.0001) %MON trcstat_ptracer40_mean       =   2.62848998362252036E-05
(PID.TID 0000.0001) %MON trcstat_ptracer40_sd         =   1.37806948754153421E-04
(PID.TID 0000.0001) %MON trcstat_ptracer40_del2       =   0.00000000000000000E+00
(PID.TID 0000.0001) %MON trcstat_ptracer41_max        =   8.81538671819726005E-04
(PID.TID 0000.0001) %MON trcstat_ptracer41_min        =   0.00000000000000000E+00
(PID.TID 0000.0001) %MON trcstat_ptracer41_mean       =   2.62848998362252036E-05
(PID.TID 0000.0001) %MON trcstat_ptracer41_sd         =   1.37806948754153421E-04
(PID.TID 0000.0001) %MON trcstat_ptracer41_del2       =   0.00000000000000000E+00
(PID.TID 0000.0001) %MON trcstat_ptracer42_max        =   8.81538671819726005E-04
(PID.TID 0000.0001) %MON trcstat_ptracer42_min        =   0.00000000000000000E+00
(PID.TID 0000.0001) %MON trcstat_ptracer42_mean       =   2.62848998362252036E-05
(PID.TID 0000.0001) %MON trcstat_ptracer42_sd         =   1.37806948754153421E-04
(PID.TID 0000.0001) %MON trcstat_ptracer42_del2       =   0.00000000000000000E+00
(PID.TID 0000.0001) %MON trcstat_ptracer43_max        =   8.81538671819726005E-04
(PID.TID 0000.0001) %MON trcstat_ptracer43_min        =   0.00000000000000000E+00
(PID.TID 0000.0001) %MON trcstat_ptracer43_mean       =   2.62848998362252036E-05
(PID.TID 0000.0001) %MON trcstat_ptracer43_sd         =   1.37806948754153421E-04
(PID.TID 0000.0001) %MON trcstat_ptracer43_del2       =   0.00000000000000000E+00
(PID.TID 0000.0001) %MON trcstat_ptracer44_max        =   8.81538671819726005E-04
(PID.TID 0000.0001) %MON trcstat_ptracer44_min        =   0.00000000000000000E+00
(PID.TID 0000.0001) %MON trcstat_ptracer44_mean       =   2.62848998362252036E-05
(PID.TID 0000.0001) %MON trcstat_ptracer44_sd         =   1.37806948754153421E-04
(PID.TID 0000.0001) %MON trcstat_ptracer44_del2       =   0.00000000000000000E+00
(PID.TID 0000.0001) %MON trcstat_ptracer45_max        =   8.81538671819726005E-04
(PID.TID 0000.0001) %MON trcstat_ptracer45_min        =   0.00000000000000000E+00
(PID.TID 0000.0001) %MON trcstat_ptracer45_mean       =   2.62848998362252036E-05
(PID.TID 0000.0001) %MON trcstat_ptracer45_sd         =   1.37806948754153421E-04
(PID.TID 0000.0001) %MON trcstat_ptracer45_del2       =   0.00000000000000000E+00
(PID.TID 0000.0001) %MON trcstat_ptracer46_max        =   8.81538671819726005E-04
(PID.TID 0000.0001) %MON trcstat_ptracer46_min        =   0.00000000000000000E+00
(PID.TID 0000.0001) %MON trcstat_ptracer46_mean       =   2.62848998362252036E-05
(PID.TID 0000.0001) %MON trcstat_ptracer46_sd         =   1.37806948754153421E-04
(PID.TID 0000.0001) %MON trcstat_ptracer46_del2       =   0.00000000000000000E+00
(PID.TID 0000.0001) %MON trcstat_ptracer47_max        =   8.81538671819726005E-04
(PID.TID 0000.0001) %MON trcstat_ptracer47_min        =   0.00000000000000000E+00
(PID.TID 0000.0001) %MON trcstat_ptracer47_mean       =   2.62848998362252036E-05
(PID.TID 0000.0001) %MON trcstat_ptracer47_sd         =   1.37806948754153421E-04
(PID.TID 0000.0001) %MON trcstat_ptracer47_del2       =   0.00000000000000000E+00
(PID.TID 0000.0001) %MON trcstat_ptracer48_max        =   8.81538671819726005E-04
(PID.TID 0000.0001) %MON trcstat_ptracer48_min        =   0.00000000000000000E+00
(PID.TID 0000.0001) %MON trcstat_ptracer48_mean       =   2.62848998362252036E-05
(PID.TID 0000.0001) %MON trcstat_ptracer48_sd         =   1.37806948754153421E-04
(PID.TID 0000.0001) %MON trcstat_ptracer48_del2       =   0.00000000000000000E+00
(PID.TID 0000.0001) %MON trcstat_ptracer49_max        =   8.81538671819726005E-04
(PID.TID 0000.0001) %MON trcstat_ptracer49_min        =   0.00000000000000000E+00
(PID.TID 0000.0001) %MON trcstat_ptracer49_mean       =   2.62848998362252036E-05
(PID.TID 0000.0001) %MON trcstat_ptracer49_sd         =   1.37806948754153421E-04
(PID.TID 0000.0001) %MON trcstat_ptracer49_del2       =   0.00000000000000000E+00
(PID.TID 0000.0001) %MON trcstat_ptracer50_max        =   8.81538671819726005E-04
(PID.TID 0000.0001) %MON trcstat_ptracer50_min        =   0.00000000000000000E+00
(PID.TID 0000.0001) %MON trcstat_ptracer50_mean       =   2.62848998362252036E-05
(PID.TID 0000.0001) %MON trcstat_ptracer50_sd         =   1.37806948754153421E-04
(PID.TID 0000.0001) %MON trcstat_ptracer50_del2       =   0.00000000000000000E+00
(PID.TID 0000.0001) %MON trcstat_ptracer51_max        =   8.81538671819726005E-04
(PID.TID 0000.0001) %MON trcstat_ptracer51_min        =   0.00000000000000000E+00
(PID.TID 0000.0001) %MON trcstat_ptracer51_mean       =   2.62848998362252036E-05
(PID.TID 0000.0001) %MON trcstat_ptracer51_sd         =   1.37806948754153421E-04
(PID.TID 0000.0001) %MON trcstat_ptracer51_del2       =   0.00000000000000000E+00
(PID.TID 0000.0001) %MON trcstat_ptracer52_max        =   8.81538671819726005E-04
(PID.TID 0000.0001) %MON trcstat_ptracer52_min        =   0.00000000000000000E+00
(PID.TID 0000.0001) %MON trcstat_ptracer52_mean       =   2.62848998362252036E-05
(PID.TID 0000.0001) %MON trcstat_ptracer52_sd         =   1.37806948754153421E-04
(PID.TID 0000.0001) %MON trcstat_ptracer52_del2       =   0.00000000000000000E+00
(PID.TID 0000.0001) %MON trcstat_ptracer53_max        =   8.81538671819726005E-04
(PID.TID 0000.0001) %MON trcstat_ptracer53_min        =   0.00000000000000000E+00
(PID.TID 0000.0001) %MON trcstat_ptracer53_mean       =   2.62848998362252036E-05
(PID.TID 0000.0001) %MON trcstat_ptracer53_sd         =   1.37806948754153421E-04
(PID.TID 0000.0001) %MON trcstat_ptracer53_del2       =   0.00000000000000000E+00
(PID.TID 0000.0001) %MON trcstat_ptracer54_max        =   8.81538671819726005E-04
(PID.TID 0000.0001) %MON trcstat_ptracer54_min        =   0.00000000000000000E+00
(PID.TID 0000.0001) %MON trcstat_ptracer54_mean       =   2.62848998362252036E-05
(PID.TID 0000.0001) %MON trcstat_ptracer54_sd         =   1.37806948754153421E-04
(PID.TID 0000.0001) %MON trcstat_ptracer54_del2       =   0.00000000000000000E+00
(PID.TID 0000.0001) %MON trcstat_ptracer55_max        =   8.81538671819726005E-04
(PID.TID 0000.0001) %MON trcstat_ptracer55_min        =   0.00000000000000000E+00
(PID.TID 0000.0001) %MON trcstat_ptracer55_mean       =   2.62848998362252036E-05
(PID.TID 0000.0001) %MON trcstat_ptracer55_sd         =   1.37806948754153421E-04
(PID.TID 0000.0001) %MON trcstat_ptracer55_del2       =   0.00000000000000000E+00
(PID.TID 0000.0001) %MON trcstat_ptracer56_max        =   8.81538671819726005E-04
(PID.TID 0000.0001) %MON trcstat_ptracer56_min        =   0.00000000000000000E+00
(PID.TID 0000.0001) %MON trcstat_ptracer56_mean       =   2.62848998362252036E-05
(PID.TID 0000.0001) %MON trcstat_ptracer56_sd         =   1.37806948754153421E-04
(PID.TID 0000.0001) %MON trcstat_ptracer56_del2       =   0.00000000000000000E+00
(PID.TID 0000.0001) %MON trcstat_ptracer57_max        =   8.81538671819726005E-04
(PID.TID 0000.0001) %MON trcstat_ptracer57_min        =   0.00000000000000000E+00
(PID.TID 0000.0001) %MON trcstat_ptracer57_mean       =   2.62848998362252036E-05
(PID.TID 0000.0001) %MON trcstat_ptracer57_sd         =   1.37806948754153421E-04
(PID.TID 0000.0001) %MON trcstat_ptracer57_del2       =   0.00000000000000000E+00
(PID.TID 0000.0001) %MON trcstat_ptracer58_max        =   8.81538671819726005E-04
(PID.TID 0000.0001) %MON trcstat_ptracer58_min        =   0.00000000000000000E+00
(PID.TID 0000.0001) %MON trcstat_ptracer58_mean       =   2.62848998362252036E-05
(PID.TID 0000.0001) %MON trcstat_ptracer58_sd         =   1.37806948754153421E-04
(PID.TID 0000.0001) %MON trcstat_ptracer58_del2       =   0.00000000000000000E+00
(PID.TID 0000.0001) %MON trcstat_ptracer59_max        =   8.81538671819726005E-04
(PID.TID 0000.0001) %MON trcstat_ptracer59_min        =   0.00000000000000000E+00
(PID.TID 0000.0001) %MON trcstat_ptracer59_mean       =   2.62848998362252036E-05
(PID.TID 0000.0001) %MON trcstat_ptracer59_sd         =   1.37806948754153421E-04
(PID.TID 0000.0001) %MON trcstat_ptracer59_del2       =   0.00000000000000000E+00
(PID.TID 0000.0001) %MON trcstat_ptracer60_max        =   8.81538671819726005E-04
(PID.TID 0000.0001) %MON trcstat_ptracer60_min        =   0.00000000000000000E+00
(PID.TID 0000.0001) %MON trcstat_ptracer60_mean       =   2.62848998362252036E-05
(PID.TID 0000.0001) %MON trcstat_ptracer60_sd         =   1.37806948754153421E-04
(PID.TID 0000.0001) %MON trcstat_ptracer60_del2       =   0.00000000000000000E+00
(PID.TID 0000.0001) %MON trcstat_ptracer61_max        =   8.81538671819726005E-04
(PID.TID 0000.0001) %MON trcstat_ptracer61_min        =   0.00000000000000000E+00
(PID.TID 0000.0001) %MON trcstat_ptracer61_mean       =   2.62848998362252036E-05
(PID.TID 0000.0001) %MON trcstat_ptracer61_sd         =   1.37806948754153421E-04
(PID.TID 0000.0001) %MON trcstat_ptracer61_del2       =   0.00000000000000000E+00
(PID.TID 0000.0001) %MON trcstat_ptracer62_max        =   8.81538671819726005E-04
(PID.TID 0000.0001) %MON trcstat_ptracer62_min        =   0.00000000000000000E+00
(PID.TID 0000.0001) %MON trcstat_ptracer62_mean       =   2.62848998362252036E-05
(PID.TID 0000.0001) %MON trcstat_ptracer62_sd         =   1.37806948754153421E-04
(PID.TID 0000.0001) %MON trcstat_ptracer62_del2       =   0.00000000000000000E+00
(PID.TID 0000.0001) %MON trcstat_ptracer63_max        =   8.81538671819726005E-04
(PID.TID 0000.0001) %MON trcstat_ptracer63_min        =   0.00000000000000000E+00
(PID.TID 0000.0001) %MON trcstat_ptracer63_mean       =   2.62848998362252036E-05
(PID.TID 0000.0001) %MON trcstat_ptracer63_sd         =   1.37806948754153421E-04
(PID.TID 0000.0001) %MON trcstat_ptracer63_del2       =   0.00000000000000000E+00
(PID.TID 0000.0001) %MON trcstat_ptracer64_max        =   8.81538671819726005E-04
(PID.TID 0000.0001) %MON trcstat_ptracer64_min        =   0.00000000000000000E+00
(PID.TID 0000.0001) %MON trcstat_ptracer64_mean       =   2.62848998362252036E-05
(PID.TID 0000.0001) %MON trcstat_ptracer64_sd         =   1.37806948754153421E-04
(PID.TID 0000.0001) %MON trcstat_ptracer64_del2       =   0.00000000000000000E+00
(PID.TID 0000.0001) %MON trcstat_ptracer65_max        =   8.81538671819726005E-04
(PID.TID 0000.0001) %MON trcstat_ptracer65_min        =   0.00000000000000000E+00
(PID.TID 0000.0001) %MON trcstat_ptracer65_mean       =   2.62848998362252036E-05
(PID.TID 0000.0001) %MON trcstat_ptracer65_sd         =   1.37806948754153421E-04
(PID.TID 0000.0001) %MON trcstat_ptracer65_del2       =   0.00000000000000000E+00
(PID.TID 0000.0001) %MON trcstat_ptracer66_max        =   8.81538671819726005E-04
(PID.TID 0000.0001) %MON trcstat_ptracer66_min        =   0.00000000000000000E+00
(PID.TID 0000.0001) %MON trcstat_ptracer66_mean       =   2.62848998362252036E-05
(PID.TID 0000.0001) %MON trcstat_ptracer66_sd         =   1.37806948754153421E-04
(PID.TID 0000.0001) %MON trcstat_ptracer66_del2       =   0.00000000000000000E+00
(PID.TID 0000.0001) %MON trcstat_ptracer67_max        =   8.81538671819726005E-04
(PID.TID 0000.0001) %MON trcstat_ptracer67_min        =   0.00000000000000000E+00
(PID.TID 0000.0001) %MON trcstat_ptracer67_mean       =   2.62848998362252036E-05
(PID.TID 0000.0001) %MON trcstat_ptracer67_sd         =   1.37806948754153421E-04
(PID.TID 0000.0001) %MON trcstat_ptracer67_del2       =   0.00000000000000000E+00
(PID.TID 0000.0001) %MON trcstat_ptracer68_max        =   8.81538671819726005E-04
(PID.TID 0000.0001) %MON trcstat_ptracer68_min        =   0.00000000000000000E+00
(PID.TID 0000.0001) %MON trcstat_ptracer68_mean       =   2.62848998362252036E-05
(PID.TID 0000.0001) %MON trcstat_ptracer68_sd         =   1.37806948754153421E-04
(PID.TID 0000.0001) %MON trcstat_ptracer68_del2       =   0.00000000000000000E+00
(PID.TID 0000.0001) %MON trcstat_ptracer69_max        =   8.81538671819726005E-04
(PID.TID 0000.0001) %MON trcstat_ptracer69_min        =   0.00000000000000000E+00
(PID.TID 0000.0001) %MON trcstat_ptracer69_mean       =   2.62848998362252036E-05
(PID.TID 0000.0001) %MON trcstat_ptracer69_sd         =   1.37806948754153421E-04
(PID.TID 0000.0001) %MON trcstat_ptracer69_del2       =   0.00000000000000000E+00
(PID.TID 0000.0001) %MON trcstat_ptracer70_max        =   8.81538671819726005E-04
(PID.TID 0000.0001) %MON trcstat_ptracer70_min        =   0.00000000000000000E+00
(PID.TID 0000.0001) %MON trcstat_ptracer70_mean       =   2.62848998362252036E-05
(PID.TID 0000.0001) %MON trcstat_ptracer70_sd         =   1.37806948754153421E-04
(PID.TID 0000.0001) %MON trcstat_ptracer70_del2       =   0.00000000000000000E+00
(PID.TID 0000.0001) %MON trcstat_ptracer71_max        =   8.81538671819726005E-04
(PID.TID 0000.0001) %MON trcstat_ptracer71_min        =   0.00000000000000000E+00
(PID.TID 0000.0001) %MON trcstat_ptracer71_mean       =   2.62848998362252036E-05
(PID.TID 0000.0001) %MON trcstat_ptracer71_sd         =   1.37806948754153421E-04
(PID.TID 0000.0001) %MON trcstat_ptracer71_del2       =   0.00000000000000000E+00
(PID.TID 0000.0001) %MON trcstat_ptracer72_max        =   8.81538671819726005E-04
(PID.TID 0000.0001) %MON trcstat_ptracer72_min        =   0.00000000000000000E+00
(PID.TID 0000.0001) %MON trcstat_ptracer72_mean       =   2.62848998362252036E-05
(PID.TID 0000.0001) %MON trcstat_ptracer72_sd         =   1.37806948754153421E-04
(PID.TID 0000.0001) %MON trcstat_ptracer72_del2       =   0.00000000000000000E+00
(PID.TID 0000.0001) %MON trcstat_ptracer73_max        =   8.81538671819726005E-04
(PID.TID 0000.0001) %MON trcstat_ptracer73_min        =   0.00000000000000000E+00
(PID.TID 0000.0001) %MON trcstat_ptracer73_mean       =   2.62848998362252036E-05
(PID.TID 0000.0001) %MON trcstat_ptracer73_sd         =   1.37806948754153421E-04
(PID.TID 0000.0001) %MON trcstat_ptracer73_del2       =   0.00000000000000000E+00
(PID.TID 0000.0001) %MON trcstat_ptracer74_max        =   8.81538671819726005E-04
(PID.TID 0000.0001) %MON trcstat_ptracer74_min        =   0.00000000000000000E+00
(PID.TID 0000.0001) %MON trcstat_ptracer74_mean       =   2.62848998362252036E-05
(PID.TID 0000.0001) %MON trcstat_ptracer74_sd         =   1.37806948754153421E-04
(PID.TID 0000.0001) %MON trcstat_ptracer74_del2       =   0.00000000000000000E+00
(PID.TID 0000.0001) %MON trcstat_ptracer75_max        =   8.81538671819726005E-04
(PID.TID 0000.0001) %MON trcstat_ptracer75_min        =   0.00000000000000000E+00
(PID.TID 0000.0001) %MON trcstat_ptracer75_mean       =   2.62848998362252036E-05
(PID.TID 0000.0001) %MON trcstat_ptracer75_sd         =   1.37806948754153421E-04
(PID.TID 0000.0001) %MON trcstat_ptracer75_del2       =   0.00000000000000000E+00
(PID.TID 0000.0001) %MON trcstat_ptracer76_max        =   8.81538671819726005E-04
(PID.TID 0000.0001) %MON trcstat_ptracer76_min        =   0.00000000000000000E+00
(PID.TID 0000.0001) %MON trcstat_ptracer76_mean       =   2.62848998362252036E-05
(PID.TID 0000.0001) %MON trcstat_ptracer76_sd         =   1.37806948754153421E-04
(PID.TID 0000.0001) %MON trcstat_ptracer76_del2       =   0.00000000000000000E+00
(PID.TID 0000.0001) %MON trcstat_ptracer77_max        =   8.81538671819726005E-04
(PID.TID 0000.0001) %MON trcstat_ptracer77_min        =   0.00000000000000000E+00
(PID.TID 0000.0001) %MON trcstat_ptracer77_mean       =   2.62848998362252036E-05
(PID.TID 0000.0001) %MON trcstat_ptracer77_sd         =   1.37806948754153421E-04
(PID.TID 0000.0001) %MON trcstat_ptracer77_del2       =   0.00000000000000000E+00
(PID.TID 0000.0001) %MON trcstat_ptracer78_max        =   8.81538671819726005E-04
(PID.TID 0000.0001) %MON trcstat_ptracer78_min        =   0.00000000000000000E+00
(PID.TID 0000.0001) %MON trcstat_ptracer78_mean       =   2.62848998362252036E-05
(PID.TID 0000.0001) %MON trcstat_ptracer78_sd         =   1.37806948754153421E-04
(PID.TID 0000.0001) %MON trcstat_ptracer78_del2       =   0.00000000000000000E+00
(PID.TID 0000.0001) %MON trcstat_ptracer79_max        =   8.81538671819726005E-04
(PID.TID 0000.0001) %MON trcstat_ptracer79_min        =   0.00000000000000000E+00
(PID.TID 0000.0001) %MON trcstat_ptracer79_mean       =   2.62848998362252036E-05
(PID.TID 0000.0001) %MON trcstat_ptracer79_sd         =   1.37806948754153421E-04
(PID.TID 0000.0001) %MON trcstat_ptracer79_del2       =   0.00000000000000000E+00
(PID.TID 0000.0001) %MON trcstat_ptracer80_max        =   8.81538671819726005E-04
(PID.TID 0000.0001) %MON trcstat_ptracer80_min        =   0.00000000000000000E+00
(PID.TID 0000.0001) %MON trcstat_ptracer80_mean       =   2.62848998362252036E-05
(PID.TID 0000.0001) %MON trcstat_ptracer80_sd         =   1.37806948754153421E-04
(PID.TID 0000.0001) %MON trcstat_ptracer80_del2       =   0.00000000000000000E+00
(PID.TID 0000.0001) %MON trcstat_ptracer81_max        =   8.81538671819726005E-04
(PID.TID 0000.0001) %MON trcstat_ptracer81_min        =   0.00000000000000000E+00
(PID.TID 0000.0001) %MON trcstat_ptracer81_mean       =   2.62848998362252036E-05
(PID.TID 0000.0001) %MON trcstat_ptracer81_sd         =   1.37806948754153421E-04
(PID.TID 0000.0001) %MON trcstat_ptracer81_del2       =   0.00000000000000000E+00
(PID.TID 0000.0001) %MON trcstat_ptracer82_max        =   8.81538671819726005E-04
(PID.TID 0000.0001) %MON trcstat_ptracer82_min        =   0.00000000000000000E+00
(PID.TID 0000.0001) %MON trcstat_ptracer82_mean       =   2.62848998362252036E-05
(PID.TID 0000.0001) %MON trcstat_ptracer82_sd         =   1.37806948754153421E-04
(PID.TID 0000.0001) %MON trcstat_ptracer82_del2       =   0.00000000000000000E+00
(PID.TID 0000.0001) %MON trcstat_ptracer83_max        =   8.81538671819726005E-04
(PID.TID 0000.0001) %MON trcstat_ptracer83_min        =   0.00000000000000000E+00
(PID.TID 0000.0001) %MON trcstat_ptracer83_mean       =   2.62848998362252036E-05
(PID.TID 0000.0001) %MON trcstat_ptracer83_sd         =   1.37806948754153421E-04
(PID.TID 0000.0001) %MON trcstat_ptracer83_del2       =   0.00000000000000000E+00
(PID.TID 0000.0001) %MON trcstat_ptracer84_max        =   8.81538671819726005E-04
(PID.TID 0000.0001) %MON trcstat_ptracer84_min        =   0.00000000000000000E+00
(PID.TID 0000.0001) %MON trcstat_ptracer84_mean       =   2.62848998362252036E-05
(PID.TID 0000.0001) %MON trcstat_ptracer84_sd         =   1.37806948754153421E-04
(PID.TID 0000.0001) %MON trcstat_ptracer84_del2       =   0.00000000000000000E+00
(PID.TID 0000.0001) %MON trcstat_ptracer85_max        =   8.81538671819726005E-04
(PID.TID 0000.0001) %MON trcstat_ptracer85_min        =   0.00000000000000000E+00
(PID.TID 0000.0001) %MON trcstat_ptracer85_mean       =   2.62848998362252036E-05
(PID.TID 0000.0001) %MON trcstat_ptracer85_sd         =   1.37806948754153421E-04
(PID.TID 0000.0001) %MON trcstat_ptracer85_del2       =   0.00000000000000000E+00
(PID.TID 0000.0001) %MON trcstat_ptracer86_max        =   8.81538671819726005E-04
(PID.TID 0000.0001) %MON trcstat_ptracer86_min        =   0.00000000000000000E+00
(PID.TID 0000.0001) %MON trcstat_ptracer86_mean       =   2.62848998362252036E-05
(PID.TID 0000.0001) %MON trcstat_ptracer86_sd         =   1.37806948754153421E-04
(PID.TID 0000.0001) %MON trcstat_ptracer86_del2       =   0.00000000000000000E+00
(PID.TID 0000.0001) %MON trcstat_ptracer87_max        =   8.81538671819726005E-04
(PID.TID 0000.0001) %MON trcstat_ptracer87_min        =   0.00000000000000000E+00
(PID.TID 0000.0001) %MON trcstat_ptracer87_mean       =   2.62848998362252036E-05
(PID.TID 0000.0001) %MON trcstat_ptracer87_sd         =   1.37806948754153421E-04
(PID.TID 0000.0001) %MON trcstat_ptracer87_del2       =   0.00000000000000000E+00
(PID.TID 0000.0001) %MON trcstat_ptracer88_max        =   8.81538671819726005E-04
(PID.TID 0000.0001) %MON trcstat_ptracer88_min        =   0.00000000000000000E+00
(PID.TID 0000.0001) %MON trcstat_ptracer88_mean       =   2.62848998362252036E-05
(PID.TID 0000.0001) %MON trcstat_ptracer88_sd         =   1.37806948754153421E-04
(PID.TID 0000.0001) %MON trcstat_ptracer88_del2       =   0.00000000000000000E+00
(PID.TID 0000.0001) %MON trcstat_ptracer89_max        =   8.81538671819726005E-04
(PID.TID 0000.0001) %MON trcstat_ptracer89_min        =   0.00000000000000000E+00
(PID.TID 0000.0001) %MON trcstat_ptracer89_mean       =   2.62848998362252036E-05
(PID.TID 0000.0001) %MON trcstat_ptracer89_sd         =   1.37806948754153421E-04
(PID.TID 0000.0001) %MON trcstat_ptracer89_del2       =   0.00000000000000000E+00
(PID.TID 0000.0001) %MON trcstat_ptracer90_max        =   8.81538671819726005E-04
(PID.TID 0000.0001) %MON trcstat_ptracer90_min        =   0.00000000000000000E+00
(PID.TID 0000.0001) %MON trcstat_ptracer90_mean       =   2.62848998362252036E-05
(PID.TID 0000.0001) %MON trcstat_ptracer90_sd         =   1.37806948754153421E-04
(PID.TID 0000.0001) %MON trcstat_ptracer90_del2       =   0.00000000000000000E+00
(PID.TID 0000.0001) %MON trcstat_ptracer91_max        =   8.81538671819726005E-04
(PID.TID 0000.0001) %MON trcstat_ptracer91_min        =   0.00000000000000000E+00
(PID.TID 0000.0001) %MON trcstat_ptracer91_mean       =   2.62848998362252036E-05
(PID.TID 0000.0001) %MON trcstat_ptracer91_sd         =   1.37806948754153421E-04
(PID.TID 0000.0001) %MON trcstat_ptracer91_del2       =   0.00000000000000000E+00
(PID.TID 0000.0001) %MON trcstat_ptracer92_max        =   8.81538671819726005E-04
(PID.TID 0000.0001) %MON trcstat_ptracer92_min        =   0.00000000000000000E+00
(PID.TID 0000.0001) %MON trcstat_ptracer92_mean       =   2.62848998362252036E-05
(PID.TID 0000.0001) %MON trcstat_ptracer92_sd         =   1.37806948754153421E-04
(PID.TID 0000.0001) %MON trcstat_ptracer92_del2       =   0.00000000000000000E+00
(PID.TID 0000.0001) %MON trcstat_ptracer93_max        =   8.81538671819726005E-04
(PID.TID 0000.0001) %MON trcstat_ptracer93_min        =   0.00000000000000000E+00
(PID.TID 0000.0001) %MON trcstat_ptracer93_mean       =   2.62848998362252036E-05
(PID.TID 0000.0001) %MON trcstat_ptracer93_sd         =   1.37806948754153421E-04
(PID.TID 0000.0001) %MON trcstat_ptracer93_del2       =   0.00000000000000000E+00
(PID.TID 0000.0001) %MON trcstat_ptracer94_max        =   8.81538671819726005E-04
(PID.TID 0000.0001) %MON trcstat_ptracer94_min        =   0.00000000000000000E+00
(PID.TID 0000.0001) %MON trcstat_ptracer94_mean       =   2.62848998362252036E-05
(PID.TID 0000.0001) %MON trcstat_ptracer94_sd         =   1.37806948754153421E-04
(PID.TID 0000.0001) %MON trcstat_ptracer94_del2       =   0.00000000000000000E+00
(PID.TID 0000.0001) %MON trcstat_ptracer95_max        =   8.81538671819726005E-04
(PID.TID 0000.0001) %MON trcstat_ptracer95_min        =   0.00000000000000000E+00
(PID.TID 0000.0001) %MON trcstat_ptracer95_mean       =   2.62848998362252036E-05
(PID.TID 0000.0001) %MON trcstat_ptracer95_sd         =   1.37806948754153421E-04
(PID.TID 0000.0001) %MON trcstat_ptracer95_del2       =   0.00000000000000000E+00
(PID.TID 0000.0001) %MON trcstat_ptracer96_max        =   1.24328507489224194E-07
(PID.TID 0000.0001) %MON trcstat_ptracer96_min        =   0.00000000000000000E+00
(PID.TID 0000.0001) %MON trcstat_ptracer96_mean       =   1.64423999056995583E-08
(PID.TID 0000.0001) %MON trcstat_ptracer96_sd         =   3.00740867386914142E-08
(PID.TID 0000.0001) %MON trcstat_ptracer96_del2       =   0.00000000000000000E+00
(PID.TID 0000.0001) %MON trcstat_ptracer97_max        =   1.24328507489224194E-07
(PID.TID 0000.0001) %MON trcstat_ptracer97_min        =   0.00000000000000000E+00
(PID.TID 0000.0001) %MON trcstat_ptracer97_mean       =   1.64423999056995583E-08
(PID.TID 0000.0001) %MON trcstat_ptracer97_sd         =   3.00740867386914142E-08
(PID.TID 0000.0001) %MON trcstat_ptracer97_del2       =   0.00000000000000000E+00
(PID.TID 0000.0001) %MON trcstat_ptracer98_max        =   3.33417374458004124E-04
(PID.TID 0000.0001) %MON trcstat_ptracer98_min        =   0.00000000000000000E+00
(PID.TID 0000.0001) %MON trcstat_ptracer98_mean       =   8.31759299265810371E-06
(PID.TID 0000.0001) %MON trcstat_ptracer98_sd         =   4.35883702285212718E-05
(PID.TID 0000.0001) %MON trcstat_ptracer98_del2       =   6.69827042068005013E-05
(PID.TID 0000.0001) %MON trcstat_ptracer99_max        =   3.60456295555045437E-04
(PID.TID 0000.0001) %MON trcstat_ptracer99_min        =   0.00000000000000000E+00
(PID.TID 0000.0001) %MON trcstat_ptracer99_mean       =   9.06459732135009684E-06
(PID.TID 0000.0001) %MON trcstat_ptracer99_sd         =   4.74217579964660217E-05
(PID.TID 0000.0001) %MON trcstat_ptracer99_del2       =   7.28830839797659446E-05
(PID.TID 0000.0001) %MON trcstat_ptracer0a_max        =   1.81486451942192942E-04
(PID.TID 0000.0001) %MON trcstat_ptracer0a_min        =   0.00000000000000000E+00
(PID.TID 0000.0001) %MON trcstat_ptracer0a_mean       =   4.23174655602522504E-06
(PID.TID 0000.0001) %MON trcstat_ptracer0a_sd         =   2.23640736182899560E-05
(PID.TID 0000.0001) %MON trcstat_ptracer0a_del2       =   3.43304172561447951E-05
(PID.TID 0000.0001) %MON trcstat_ptracer0b_max        =   1.74852510814423447E-04
(PID.TID 0000.0001) %MON trcstat_ptracer0b_min        =   0.00000000000000000E+00
(PID.TID 0000.0001) %MON trcstat_ptracer0b_mean       =   4.00841318741663359E-06
(PID.TID 0000.0001) %MON trcstat_ptracer0b_sd         =   2.11929483915815015E-05
(PID.TID 0000.0001) %MON trcstat_ptracer0b_del2       =   3.25094402492510798E-05
(PID.TID 0000.0001) %MON trcstat_ptracer0c_max        =   4.48004522959971174E-04
(PID.TID 0000.0001) %MON trcstat_ptracer0c_min        =   0.00000000000000000E+00
(PID.TID 0000.0001) %MON trcstat_ptracer0c_mean       =   1.12806260457083300E-05
(PID.TID 0000.0001) %MON trcstat_ptracer0c_sd         =   5.89388868044674215E-05
(PID.TID 0000.0001) %MON trcstat_ptracer0c_del2       =   9.05923975484156715E-05
(PID.TID 0000.0001) %MON trcstat_ptracer0d_max        =   1.69207674811923294E-04
(PID.TID 0000.0001) %MON trcstat_ptracer0d_min        =   0.00000000000000000E+00
(PID.TID 0000.0001) %MON trcstat_ptracer0d_mean       =   4.09019972113911539E-06
(PID.TID 0000.0001) %MON trcstat_ptracer0d_sd         =   2.15548912062035655E-05
(PID.TID 0000.0001) %MON trcstat_ptracer0d_del2       =   3.31056447997647791E-05
(PID.TID 0000.0001) %MON trcstat_ptracer0e_max        =   1.96708717932525442E-04
(PID.TID 0000.0001) %MON trcstat_ptracer0e_min        =   0.00000000000000000E+00
(PID.TID 0000.0001) %MON trcstat_ptracer0e_mean       =   4.55789838906150136E-06
(PID.TID 0000.0001) %MON trcstat_ptracer0e_sd         =   2.40969115981567777E-05
(PID.TID 0000.0001) %MON trcstat_ptracer0e_del2       =   3.69847245563778443E-05
(PID.TID 0000.0001) %MON trcstat_ptracer0f_max        =   1.23398186454261224E-04
(PID.TID 0000.0001) %MON trcstat_ptracer0f_min        =   0.00000000000000000E+00
(PID.TID 0000.0001) %MON trcstat_ptracer0f_mean       =   3.10279924260667482E-06
(PID.TID 0000.0001) %MON trcstat_ptracer0f_sd         =   1.62376371035936437E-05
(PID.TID 0000.0001) %MON trcstat_ptracer0f_del2       =   2.49552240852107828E-05
(PID.TID 0000.0001) %MON trcstat_ptracer0g_max        =   1.65776983042519098E-04
(PID.TID 0000.0001) %MON trcstat_ptracer0g_min        =   0.00000000000000000E+00
(PID.TID 0000.0001) %MON trcstat_ptracer0g_mean       =   3.79895641135553269E-06
(PID.TID 0000.0001) %MON trcstat_ptracer0g_sd         =   2.00777614079948043E-05
(PID.TID 0000.0001) %MON trcstat_ptracer0g_del2       =   3.07922831473902110E-05
(PID.TID 0000.0001) %MON trcstat_ptracer0h_max        =   1.35905137277326517E-04
(PID.TID 0000.0001) %MON trcstat_ptracer0h_min        =   0.00000000000000000E+00
(PID.TID 0000.0001) %MON trcstat_ptracer0h_mean       =   3.15851262233500297E-06
(PID.TID 0000.0001) %MON trcstat_ptracer0h_sd         =   1.66957066478708322E-05
(PID.TID 0000.0001) %MON trcstat_ptracer0h_del2       =   2.56271419389021266E-05
(PID.TID 0000.0001) %MON trcstat_ptracer0i_max        =   4.05726675013289809E-04
(PID.TID 0000.0001) %MON trcstat_ptracer0i_min        =   0.00000000000000000E+00
(PID.TID 0000.0001) %MON trcstat_ptracer0i_mean       =   1.01363762033538228E-05
(PID.TID 0000.0001) %MON trcstat_ptracer0i_sd         =   5.31073751287653971E-05
(PID.TID 0000.0001) %MON trcstat_ptracer0i_del2       =   8.16121573738366903E-05
(PID.TID 0000.0001) %MON trcstat_ptracer0j_max        =   1.22931406255353122E-04
(PID.TID 0000.0001) %MON trcstat_ptracer0j_min        =   0.00000000000000000E+00
(PID.TID 0000.0001) %MON trcstat_ptracer0j_mean       =   2.92029266593343855E-06
(PID.TID 0000.0001) %MON trcstat_ptracer0j_sd         =   1.54117583847040235E-05
(PID.TID 0000.0001) %MON trcstat_ptracer0j_del2       =   2.36655723060492289E-05
(PID.TID 0000.0001) %MON trcstat_ptracer0k_max        =   3.75787552876047175E-04
(PID.TID 0000.0001) %MON trcstat_ptracer0k_min        =   0.00000000000000000E+00
(PID.TID 0000.0001) %MON trcstat_ptracer0k_mean       =   9.42258558958517984E-06
(PID.TID 0000.0001) %MON trcstat_ptracer0k_sd         =   4.93402755620156008E-05
(PID.TID 0000.0001) %MON trcstat_ptracer0k_del2       =   7.58263755202271393E-05
(PID.TID 0000.0001) %MON trcstat_ptracer0l_max        =   3.81127417466776953E-04
(PID.TID 0000.0001) %MON trcstat_ptracer0l_min        =   0.00000000000000000E+00
(PID.TID 0000.0001) %MON trcstat_ptracer0l_mean       =   9.08833978919215800E-06
(PID.TID 0000.0001) %MON trcstat_ptracer0l_sd         =   4.79486935635286258E-05
(PID.TID 0000.0001) %MON trcstat_ptracer0l_del2       =   7.36314868490620822E-05
(PID.TID 0000.0001) %MON trcstat_ptracer0m_max        =   1.79223212022110319E-04
(PID.TID 0000.0001) %MON trcstat_ptracer0m_min        =   0.00000000000000000E+00
(PID.TID 0000.0001) %MON trcstat_ptracer0m_mean       =   4.12752738518639426E-06
(PID.TID 0000.0001) %MON trcstat_ptracer0m_sd         =   2.18268526988303349E-05
(PID.TID 0000.0001) %MON trcstat_ptracer0m_del2       =   3.34933853395519670E-05
(PID.TID 0000.0001) %MON trcstat_ptracer0n_max        =   1.07235695502043191E-04
(PID.TID 0000.0001) %MON trcstat_ptracer0n_min        =   0.00000000000000000E+00
(PID.TID 0000.0001) %MON trcstat_ptracer0n_mean       =   2.55836328218471114E-06
(PID.TID 0000.0001) %MON trcstat_ptracer0n_sd         =   1.34970055328646020E-05
(PID.TID 0000.0001) %MON trcstat_ptracer0n_del2       =   2.07265442649940941E-05
(PID.TID 0000.0001) %MON trcstat_ptracer0o_max        =   1.72038121952834856E-04
(PID.TID 0000.0001) %MON trcstat_ptracer0o_min        =   0.00000000000000000E+00
(PID.TID 0000.0001) %MON trcstat_ptracer0o_mean       =   4.30875347033258847E-06
(PID.TID 0000.0001) %MON trcstat_ptracer0o_sd         =   2.25661908682044851E-05
(PID.TID 0000.0001) %MON trcstat_ptracer0o_del2       =   3.46793693380802520E-05
(PID.TID 0000.0001) %MON trcstat_ptracer0p_max        =   1.97652477683591126E-04
(PID.TID 0000.0001) %MON trcstat_ptracer0p_min        =   0.00000000000000000E+00
(PID.TID 0000.0001) %MON trcstat_ptracer0p_mean       =   4.77613979605858233E-06
(PID.TID 0000.0001) %MON trcstat_ptracer0p_sd         =   2.51704485262437317E-05
(PID.TID 0000.0001) %MON trcstat_ptracer0p_del2       =   3.86585496562250167E-05
(PID.TID 0000.0001) %MON trcstat_ptracer0q_max        =   1.48616086185345117E-04
(PID.TID 0000.0001) %MON trcstat_ptracer0q_min        =   0.00000000000000000E+00
(PID.TID 0000.0001) %MON trcstat_ptracer0q_mean       =   3.69610777608092204E-06
(PID.TID 0000.0001) %MON trcstat_ptracer0q_sd         =   1.93791288447914664E-05
(PID.TID 0000.0001) %MON trcstat_ptracer0q_del2       =   2.97789143737374573E-05
(PID.TID 0000.0001) %MON trcstat_ptracer0r_max        =   1.32798960356959346E-04
(PID.TID 0000.0001) %MON trcstat_ptracer0r_min        =   0.00000000000000000E+00
(PID.TID 0000.0001) %MON trcstat_ptracer0r_mean       =   3.14372563160820140E-06
(PID.TID 0000.0001) %MON trcstat_ptracer0r_sd         =   1.65955215896185281E-05
(PID.TID 0000.0001) %MON trcstat_ptracer0r_del2       =   2.54820449105620392E-05
(PID.TID 0000.0001) %MON trcstat_ptracer0s_max        =   1.23414499860707670E-04
(PID.TID 0000.0001) %MON trcstat_ptracer0s_min        =   0.00000000000000000E+00
(PID.TID 0000.0001) %MON trcstat_ptracer0s_mean       =   2.88724311091929753E-06
(PID.TID 0000.0001) %MON trcstat_ptracer0s_sd         =   1.52551279344659746E-05
(PID.TID 0000.0001) %MON trcstat_ptracer0s_del2       =   2.34192751068271307E-05
(PID.TID 0000.0001) %MON trcstat_ptracer0t_max        =   3.32455712176448024E-04
(PID.TID 0000.0001) %MON trcstat_ptracer0t_min        =   0.00000000000000000E+00
(PID.TID 0000.0001) %MON trcstat_ptracer0t_mean       =   8.14287353718368972E-06
(PID.TID 0000.0001) %MON trcstat_ptracer0t_sd         =   4.28214060352186468E-05
(PID.TID 0000.0001) %MON trcstat_ptracer0t_del2       =   6.57839359872446501E-05
(PID.TID 0000.0001) %MON trcstat_ptracer0u_max        =   1.22467610753487733E-04
(PID.TID 0000.0001) %MON trcstat_ptracer0u_min        =   0.00000000000000000E+00
(PID.TID 0000.0001) %MON trcstat_ptracer0u_mean       =   2.85687976567330807E-06
(PID.TID 0000.0001) %MON trcstat_ptracer0u_sd         =   1.50976798648311664E-05
(PID.TID 0000.0001) %MON trcstat_ptracer0u_del2       =   2.31762175276046628E-05
(PID.TID 0000.0001) %MON trcstat_ptracer0v_max        =   4.32769019742684487E-04
(PID.TID 0000.0001) %MON trcstat_ptracer0v_min        =   0.00000000000000000E+00
(PID.TID 0000.0001) %MON trcstat_ptracer0v_mean       =   1.08892449671298163E-05
(PID.TID 0000.0001) %MON trcstat_ptracer0v_sd         =   5.69258418843034220E-05
(PID.TID 0000.0001) %MON trcstat_ptracer0v_del2       =   8.74947155462767846E-05
(PID.TID 0000.0001) %MON trcstat_ptracer0w_max        =   3.46683109466973383E-04
(PID.TID 0000.0001) %MON trcstat_ptracer0w_min        =   0.00000000000000000E+00
(PID.TID 0000.0001) %MON trcstat_ptracer0w_mean       =   8.50979254047707762E-06
(PID.TID 0000.0001) %MON trcstat_ptracer0w_sd         =   4.47286306650521395E-05
(PID.TID 0000.0001) %MON trcstat_ptracer0w_del2       =   6.87172337696459473E-05
(PID.TID 0000.0001) %MON trcstat_ptracer0x_max        =   3.40108350753993494E-04
(PID.TID 0000.0001) %MON trcstat_ptracer0x_min        =   0.00000000000000000E+00
(PID.TID 0000.0001) %MON trcstat_ptracer0x_mean       =   8.37009489782634008E-06
(PID.TID 0000.0001) %MON trcstat_ptracer0x_sd         =   4.39700918516382279E-05
(PID.TID 0000.0001) %MON trcstat_ptracer0x_del2       =   6.75553660120107246E-05
(PID.TID 0000.0001) %MON trcstat_ptracer0y_max        =   1.32101587462185398E-04
(PID.TID 0000.0001) %MON trcstat_ptracer0y_min        =   0.00000000000000000E+00
(PID.TID 0000.0001) %MON trcstat_ptracer0y_mean       =   3.22838008831146932E-06
(PID.TID 0000.0001) %MON trcstat_ptracer0y_sd         =   1.69868045842378437E-05
(PID.TID 0000.0001) %MON trcstat_ptracer0y_del2       =   2.60943009570414751E-05
(PID.TID 0000.0001) %MON trcstat_ptracer0z_max        =   3.44039797230062271E-04
(PID.TID 0000.0001) %MON trcstat_ptracer0z_min        =   0.00000000000000000E+00
(PID.TID 0000.0001) %MON trcstat_ptracer0z_mean       =   8.38236961975603663E-06
(PID.TID 0000.0001) %MON trcstat_ptracer0z_sd         =   4.41445941515106275E-05
(PID.TID 0000.0001) %MON trcstat_ptracer0z_del2       =   6.78061561683627816E-05
(PID.TID 0000.0001) %MON trcstat_ptracer0A_max        =   1.30434946975735639E-04
(PID.TID 0000.0001) %MON trcstat_ptracer0A_min        =   0.00000000000000000E+00
(PID.TID 0000.0001) %MON trcstat_ptracer0A_mean       =   3.25349887601713464E-06
(PID.TID 0000.0001) %MON trcstat_ptracer0A_sd         =   1.70503003420740203E-05
(PID.TID 0000.0001) %MON trcstat_ptracer0A_del2       =   2.62013344366415090E-05
(PID.TID 0000.0001) %MON trcstat_ptracer0B_max        =   3.64554855593936797E-04
(PID.TID 0000.0001) %MON trcstat_ptracer0B_min        =   0.00000000000000000E+00
(PID.TID 0000.0001) %MON trcstat_ptracer0B_mean       =   9.11450970341138260E-06
(PID.TID 0000.0001) %MON trcstat_ptracer0B_sd         =   4.77480381987327690E-05
(PID.TID 0000.0001) %MON trcstat_ptracer0B_del2       =   7.33769185365396726E-05
(PID.TID 0000.0001) %MON trcstat_ptracer0C_max        =   2.04255462742943547E-04
(PID.TID 0000.0001) %MON trcstat_ptracer0C_min        =   0.00000000000000000E+00
(PID.TID 0000.0001) %MON trcstat_ptracer0C_mean       =   4.99137883807181810E-06
(PID.TID 0000.0001) %MON trcstat_ptracer0C_sd         =   2.62636761030479362E-05
(PID.TID 0000.0001) %MON trcstat_ptracer0C_del2       =   4.03449009039846853E-05
(PID.TID 0000.0001) %MON trcstat_ptracer0D_max        =   1.55908069747674418E-04
(PID.TID 0000.0001) %MON trcstat_ptracer0D_min        =   0.00000000000000000E+00
(PID.TID 0000.0001) %MON trcstat_ptracer0D_mean       =   3.61611194053620584E-06
(PID.TID 0000.0001) %MON trcstat_ptracer0D_sd         =   1.91167930936209598E-05
(PID.TID 0000.0001) %MON trcstat_ptracer0D_del2       =   2.93418832655739275E-05
(PID.TID 0000.0001) %MON trcstat_ptracer0E_max        =   3.66802080400420482E-04
(PID.TID 0000.0001) %MON trcstat_ptracer0E_min        =   0.00000000000000000E+00
(PID.TID 0000.0001) %MON trcstat_ptracer0E_mean       =   8.99153401439492673E-06
(PID.TID 0000.0001) %MON trcstat_ptracer0E_sd         =   4.72751227281990063E-05
(PID.TID 0000.0001) %MON trcstat_ptracer0E_del2       =   7.26273059700752253E-05
(PID.TID 0000.0001) %MON trcstat_ptracer0F_max        =   1.91567046076543830E-04
(PID.TID 0000.0001) %MON trcstat_ptracer0F_min        =   0.00000000000000000E+00
(PID.TID 0000.0001) %MON trcstat_ptracer0F_mean       =   4.62807856515869147E-06
(PID.TID 0000.0001) %MON trcstat_ptracer0F_sd         =   2.43906082199813022E-05
(PID.TID 0000.0001) %MON trcstat_ptracer0F_del2       =   3.74607274385105145E-05
(PID.TID 0000.0001) %MON trcstat_ptracer0G_max        =   4.22266298975159922E-04
(PID.TID 0000.0001) %MON trcstat_ptracer0G_min        =   0.00000000000000000E+00
(PID.TID 0000.0001) %MON trcstat_ptracer0G_mean       =   1.05320872070913070E-05
(PID.TID 0000.0001) %MON trcstat_ptracer0G_sd         =   5.51950834970765718E-05
(PID.TID 0000.0001) %MON trcstat_ptracer0G_del2       =   8.48186600847046013E-05
(PID.TID 0000.0001) %MON trcstat_ptracer0H_max        =   3.19357669417899407E-04
(PID.TID 0000.0001) %MON trcstat_ptracer0H_min        =   0.00000000000000000E+00
(PID.TID 0000.0001) %MON trcstat_ptracer0H_mean       =   7.84947709280992390E-06
(PID.TID 0000.0001) %MON trcstat_ptracer0H_sd         =   4.12460493488002312E-05
(PID.TID 0000.0001) %MON trcstat_ptracer0H_del2       =   6.33686173707592720E-05
(PID.TID 0000.0001) %MON trcstat_ptracer0I_max        =   3.81772622665809054E-04
(PID.TID 0000.0001) %MON trcstat_ptracer0I_min        =   0.00000000000000000E+00
(PID.TID 0000.0001) %MON trcstat_ptracer0I_mean       =   9.61708044892429762E-06
(PID.TID 0000.0001) %MON trcstat_ptracer0I_sd         =   5.02335925143568653E-05
(PID.TID 0000.0001) %MON trcstat_ptracer0I_del2       =   7.72133559860519912E-05
(PID.TID 0000.0001) %MON trcstat_ptracer0J_max        =   1.72962559095431547E-04
(PID.TID 0000.0001) %MON trcstat_ptracer0J_min        =   0.00000000000000000E+00
(PID.TID 0000.0001) %MON trcstat_ptracer0J_mean       =   4.23576201546873715E-06
(PID.TID 0000.0001) %MON trcstat_ptracer0J_sd         =   2.22756437698470512E-05
(PID.TID 0000.0001) %MON trcstat_ptracer0J_del2       =   3.42206023592953921E-05
(PID.TID 0000.0001) %MON trcstat_ptracer0K_max        =   1.40251665898910891E-04
(PID.TID 0000.0001) %MON trcstat_ptracer0K_min        =   0.00000000000000000E+00
(PID.TID 0000.0001) %MON trcstat_ptracer0K_mean       =   3.32345687693097887E-06
(PID.TID 0000.0001) %MON trcstat_ptracer0K_sd         =   1.75429311044527039E-05
(PID.TID 0000.0001) %MON trcstat_ptracer0K_del2       =   2.69371590631565364E-05
(PID.TID 0000.0001) %MON trcstat_ptracer0L_max        =   3.20954263768941670E-04
(PID.TID 0000.0001) %MON trcstat_ptracer0L_min        =   0.00000000000000000E+00
(PID.TID 0000.0001) %MON trcstat_ptracer0L_mean       =   8.05679095869008040E-06
(PID.TID 0000.0001) %MON trcstat_ptracer0L_sd         =   4.21813909159886408E-05
(PID.TID 0000.0001) %MON trcstat_ptracer0L_del2       =   6.48253974230136236E-05
(PID.TID 0000.0001) %MON trcstat_ptracer0M_max        =   3.63588863855988508E-04
(PID.TID 0000.0001) %MON trcstat_ptracer0M_min        =   0.00000000000000000E+00
(PID.TID 0000.0001) %MON trcstat_ptracer0M_mean       =   9.19027580704819187E-06
(PID.TID 0000.0001) %MON trcstat_ptracer0M_sd         =   4.79328670507381540E-05
(PID.TID 0000.0001) %MON trcstat_ptracer0M_del2       =   7.36845752506753087E-05
(PID.TID 0000.0001) %MON trcstat_ptracer0N_max        =   1.54509961285567363E-04
(PID.TID 0000.0001) %MON trcstat_ptracer0N_min        =   0.00000000000000000E+00
(PID.TID 0000.0001) %MON trcstat_ptracer0N_mean       =   3.54561468810868651E-06
(PID.TID 0000.0001) %MON trcstat_ptracer0N_sd         =   1.87486711926531169E-05
(PID.TID 0000.0001) %MON trcstat_ptracer0N_del2       =   2.87635175370351175E-05
(PID.TID 0000.0001) %MON trcstat_ptracer0O_max        =   1.49063397054962347E-04
(PID.TID 0000.0001) %MON trcstat_ptracer0O_min        =   0.00000000000000000E+00
(PID.TID 0000.0001) %MON trcstat_ptracer0O_mean       =   3.56923811762527692E-06
(PID.TID 0000.0001) %MON trcstat_ptracer0O_sd         =   1.88243856366699985E-05
(PID.TID 0000.0001) %MON trcstat_ptracer0O_del2       =   2.89087959756758760E-05
(PID.TID 0000.0001) %MON trcstat_ptracer0P_max        =   2.36512561475272283E-04
(PID.TID 0000.0001) %MON trcstat_ptracer0P_min        =   0.00000000000000000E+00
(PID.TID 0000.0001) %MON trcstat_ptracer0P_mean       =   5.76720232883251861E-06
(PID.TID 0000.0001) %MON trcstat_ptracer0P_sd         =   3.03647086138902077E-05
(PID.TID 0000.0001) %MON trcstat_ptracer0P_del2       =   4.66415471274034241E-05
(PID.TID 0000.0001) %MON trcstat_ptracer0Q_max        =   3.81019169787600068E-04
(PID.TID 0000.0001) %MON trcstat_ptracer0Q_min        =   0.00000000000000000E+00
(PID.TID 0000.0001) %MON trcstat_ptracer0Q_mean       =   9.09077912124531961E-06
(PID.TID 0000.0001) %MON trcstat_ptracer0Q_sd         =   4.79594010442062799E-05
(PID.TID 0000.0001) %MON trcstat_ptracer0Q_del2       =   7.36484524339024867E-05
(PID.TID 0000.0001) %MON trcstat_ptracer0R_max        =   3.42835160244696954E-04
(PID.TID 0000.0001) %MON trcstat_ptracer0R_min        =   0.00000000000000000E+00
(PID.TID 0000.0001) %MON trcstat_ptracer0R_mean       =   8.30322548093141487E-06
(PID.TID 0000.0001) %MON trcstat_ptracer0R_sd         =   4.37499498541179171E-05
(PID.TID 0000.0001) %MON trcstat_ptracer0R_del2       =   6.71958857196758080E-05
(PID.TID 0000.0001) %MON trcstat_ptracer0S_max        =   1.03672159909138075E-04
(PID.TID 0000.0001) %MON trcstat_ptracer0S_min        =   0.00000000000000000E+00
(PID.TID 0000.0001) %MON trcstat_ptracer0S_mean       =   2.48380784999096358E-06
(PID.TID 0000.0001) %MON trcstat_ptracer0S_sd         =   1.30991317234657661E-05
(PID.TID 0000.0001) %MON trcstat_ptracer0S_del2       =   2.01166074616729521E-05
(PID.TID 0000.0001) %MON trcstat_ptracer0T_max        =   3.66691541091239675E-04
(PID.TID 0000.0001) %MON trcstat_ptracer0T_min        =   0.00000000000000000E+00
(PID.TID 0000.0001) %MON trcstat_ptracer0T_mean       =   9.22046744156761373E-06
(PID.TID 0000.0001) %MON trcstat_ptracer0T_sd         =   4.82497262487813330E-05
(PID.TID 0000.0001) %MON trcstat_ptracer0T_del2       =   7.41541632300510799E-05
(PID.TID 0000.0001) %MON trcstat_ptracer0U_max        =   3.59334307786644911E-04
(PID.TID 0000.0001) %MON trcstat_ptracer0U_min        =   0.00000000000000000E+00
(PID.TID 0000.0001) %MON trcstat_ptracer0U_mean       =   8.82767818863271949E-06
(PID.TID 0000.0001) %MON trcstat_ptracer0U_sd         =   4.63910520038654305E-05
(PID.TID 0000.0001) %MON trcstat_ptracer0U_del2       =   7.12724637152236680E-05
(PID.TID 0000.0001) %MON trcstat_ptracer0V_max        =   3.63661416362122067E-04
(PID.TID 0000.0001) %MON trcstat_ptracer0V_min        =   0.00000000000000000E+00
(PID.TID 0000.0001) %MON trcstat_ptracer0V_mean       =   8.78243861055274073E-06
(PID.TID 0000.0001) %MON trcstat_ptracer0V_sd         =   4.62861076283897790E-05
(PID.TID 0000.0001) %MON trcstat_ptracer0V_del2       =   7.10890120331758980E-05
(PID.TID 0000.0001) %MON trcstat_ptracer0W_max        =   4.76498074053164267E-04
(PID.TID 0000.0001) %MON trcstat_ptracer0W_min        =   0.00000000000000000E+00
(PID.TID 0000.0001) %MON trcstat_ptracer0W_mean       =   1.19852051196558403E-05
(PID.TID 0000.0001) %MON trcstat_ptracer0W_sd         =   6.26803810760733691E-05
(PID.TID 0000.0001) %MON trcstat_ptracer0W_del2       =   9.63365897996010657E-05
(PID.TID 0000.0001) %MON trcstat_ptracer0X_max        =   1.81247258266325014E-04
(PID.TID 0000.0001) %MON trcstat_ptracer0X_min        =   0.00000000000000000E+00
(PID.TID 0000.0001) %MON trcstat_ptracer0X_mean       =   4.46795094588584111E-06
(PID.TID 0000.0001) %MON trcstat_ptracer0X_sd         =   2.34633546166422630E-05
(PID.TID 0000.0001) %MON trcstat_ptracer0X_del2       =   3.60500386666764506E-05
(PID.TID 0000.0001) %MON trcstat_ptracer0Y_max        =   3.55222296084701389E-04
(PID.TID 0000.0001) %MON trcstat_ptracer0Y_min        =   0.00000000000000000E+00
(PID.TID 0000.0001) %MON trcstat_ptracer0Y_mean       =   8.93296433723435239E-06
(PID.TID 0000.0001) %MON trcstat_ptracer0Y_sd         =   4.67332293184807910E-05
(PID.TID 0000.0001) %MON trcstat_ptracer0Y_del2       =   7.18248627865751441E-05
(PID.TID 0000.0001) %MON trcstat_ptracer0Z_max        =   3.67351269821213848E-04
(PID.TID 0000.0001) %MON trcstat_ptracer0Z_min        =   0.00000000000000000E+00
(PID.TID 0000.0001) %MON trcstat_ptracer0Z_mean       =   9.02882054862386376E-06
(PID.TID 0000.0001) %MON trcstat_ptracer0Z_sd         =   4.74433780671178136E-05
(PID.TID 0000.0001) %MON trcstat_ptracer0Z_del2       =   7.28898745308749626E-05
(PID.TID 0000.0001) %MON trcstat_ptracer1a_max        =   1.47059908126460562E-04
(PID.TID 0000.0001) %MON trcstat_ptracer1a_min        =   0.00000000000000000E+00
(PID.TID 0000.0001) %MON trcstat_ptracer1a_mean       =   3.55713461327756792E-06
(PID.TID 0000.0001) %MON trcstat_ptracer1a_sd         =   1.87446742028181386E-05
(PID.TID 0000.0001) %MON trcstat_ptracer1a_del2       =   2.87896994010377375E-05
(PID.TID 0000.0001) %MON trcstat_ptracer1b_max        =   3.74931494716483388E-04
(PID.TID 0000.0001) %MON trcstat_ptracer1b_min        =   0.00000000000000000E+00
(PID.TID 0000.0001) %MON trcstat_ptracer1b_mean       =   9.14913124221591021E-06
(PID.TID 0000.0001) %MON trcstat_ptracer1b_sd         =   4.81601686965939929E-05
(PID.TID 0000.0001) %MON trcstat_ptracer1b_del2       =   7.39779853727889929E-05
(PID.TID 0000.0001) %MON trcstat_ptracer1c_max        =   3.10689326687422671E-04
(PID.TID 0000.0001) %MON trcstat_ptracer1c_min        =   0.00000000000000000E+00
(PID.TID 0000.0001) %MON trcstat_ptracer1c_mean       =   7.61534499529292561E-06
(PID.TID 0000.0001) %MON trcstat_ptracer1c_sd         =   4.00403122209066429E-05
(PID.TID 0000.0001) %MON trcstat_ptracer1c_del2       =   6.15125657648874841E-05
(PID.TID 0000.0001) %MON trcstat_ptracer1d_max        =   1.69952962138116074E-04
(PID.TID 0000.0001) %MON trcstat_ptracer1d_min        =   0.00000000000000000E+00
(PID.TID 0000.0001) %MON trcstat_ptracer1d_mean       =   3.89456533681501721E-06
(PID.TID 0000.0001) %MON trcstat_ptracer1d_sd         =   2.05871687457138349E-05
(PID.TID 0000.0001) %MON trcstat_ptracer1d_del2       =   3.15766005671684759E-05
(PID.TID 0000.0001) %MON trcstat_ptracer1e_max        =   1.92766115427953576E-04
(PID.TID 0000.0001) %MON trcstat_ptracer1e_min        =   0.00000000000000000E+00
(PID.TID 0000.0001) %MON trcstat_ptracer1e_mean       =   4.74876901624129471E-06
(PID.TID 0000.0001) %MON trcstat_ptracer1e_sd         =   2.49413272184781270E-05
(PID.TID 0000.0001) %MON trcstat_ptracer1e_del2       =   3.83204044959282742E-05
(PID.TID 0000.0001) %MON trcstat_ptracer1f_max        =   1.18305913323799903E-04
(PID.TID 0000.0001) %MON trcstat_ptracer1f_min        =   0.00000000000000000E+00
(PID.TID 0000.0001) %MON trcstat_ptracer1f_mean       =   2.80471636343877723E-06
(PID.TID 0000.0001) %MON trcstat_ptracer1f_sd         =   1.48042068265634739E-05
(PID.TID 0000.0001) %MON trcstat_ptracer1f_del2       =   2.27319998059381367E-05
(PID.TID 0000.0001) %MON trcstat_ptracer1g_max        =   4.72468622496536228E-04
(PID.TID 0000.0001) %MON trcstat_ptracer1g_min        =   0.00000000000000000E+00
(PID.TID 0000.0001) %MON trcstat_ptracer1g_mean       =   1.18640932518649399E-05
(PID.TID 0000.0001) %MON trcstat_ptracer1g_sd         =   6.21115596838410500E-05
(PID.TID 0000.0001) %MON trcstat_ptracer1g_del2       =   9.54549207337961021E-05
(PID.TID 0000.0001) %MON trcstat_ptracer1h_max        =   4.04242588760928055E-04
(PID.TID 0000.0001) %MON trcstat_ptracer1h_min        =   0.00000000000000000E+00
(PID.TID 0000.0001) %MON trcstat_ptracer1h_mean       =   1.01643099228287739E-05
(PID.TID 0000.0001) %MON trcstat_ptracer1h_sd         =   5.31977678468725774E-05
(PID.TID 0000.0001) %MON trcstat_ptracer1h_del2       =   8.17576814039924857E-05
(PID.TID 0000.0001) %MON trcstat_ptracer1i_max        =   1.64494876161126182E-04
(PID.TID 0000.0001) %MON trcstat_ptracer1i_min        =   0.00000000000000000E+00
(PID.TID 0000.0001) %MON trcstat_ptracer1i_mean       =   4.07902043554989881E-06
(PID.TID 0000.0001) %MON trcstat_ptracer1i_sd         =   2.13974980520944821E-05
(PID.TID 0000.0001) %MON trcstat_ptracer1i_del2       =   3.28790796876117489E-05
(PID.TID 0000.0001) %MON trcstat_ptracer1j_max        =   1.44617554134377017E-04
(PID.TID 0000.0001) %MON trcstat_ptracer1j_min        =   0.00000000000000000E+00
(PID.TID 0000.0001) %MON trcstat_ptracer1j_mean       =   3.47102232045705936E-06
(PID.TID 0000.0001) %MON trcstat_ptracer1j_sd         =   1.83027861130265674E-05
(PID.TID 0000.0001) %MON trcstat_ptracer1j_del2       =   2.81085680873285375E-05
(PID.TID 0000.0001) %MON trcstat_ptracer1k_max        =   1.60081540561678984E-04
(PID.TID 0000.0001) %MON trcstat_ptracer1k_min        =   0.00000000000000000E+00
(PID.TID 0000.0001) %MON trcstat_ptracer1k_mean       =   3.67289894656998690E-06
(PID.TID 0000.0001) %MON trcstat_ptracer1k_sd         =   1.94214813611811117E-05
(PID.TID 0000.0001) %MON trcstat_ptracer1k_del2       =   2.97952761858256694E-05
(PID.TID 0000.0001) %MON trcstat_ptracer1l_max        =   4.62218335895787013E-04
(PID.TID 0000.0001) %MON trcstat_ptracer1l_min        =   0.00000000000000000E+00
(PID.TID 0000.0001) %MON trcstat_ptracer1l_mean       =   1.15280707398843300E-05
(PID.TID 0000.0001) %MON trcstat_ptracer1l_sd         =   6.04151065297017640E-05
(PID.TID 0000.0001) %MON trcstat_ptracer1l_del2       =   9.28402545006443939E-05
(PID.TID 0000.0001) %MON trcstat_ptracer1m_max        =   3.34231779155881191E-04
(PID.TID 0000.0001) %MON trcstat_ptracer1m_min        =   0.00000000000000000E+00
(PID.TID 0000.0001) %MON trcstat_ptracer1m_mean       =   8.31135066540699407E-06
(PID.TID 0000.0001) %MON trcstat_ptracer1m_sd         =   4.35783106290721625E-05
(PID.TID 0000.0001) %MON trcstat_ptracer1m_del2       =   6.69644420018017817E-05
(PID.TID 0000.0001) %MON trcstat_ptracer1n_max        =   3.73161977487012069E-04
(PID.TID 0000.0001) %MON trcstat_ptracer1n_min        =   0.00000000000000000E+00
(PID.TID 0000.0001) %MON trcstat_ptracer1n_mean       =   9.01164788290365465E-06
(PID.TID 0000.0001) %MON trcstat_ptracer1n_sd         =   4.74942116182573172E-05
(PID.TID 0000.0001) %MON trcstat_ptracer1n_del2       =   7.29444712050743337E-05
(PID.TID 0000.0001) %MON trcstat_ptracer1o_max        =   3.67351196963776425E-04
(PID.TID 0000.0001) %MON trcstat_ptracer1o_min        =   0.00000000000000000E+00
(PID.TID 0000.0001) %MON trcstat_ptracer1o_mean       =   8.92766865816200829E-06
(PID.TID 0000.0001) %MON trcstat_ptracer1o_sd         =   4.70264586293231990E-05
(PID.TID 0000.0001) %MON trcstat_ptracer1o_del2       =   7.22308698572966980E-05
(PID.TID 0000.0001) %MON trcstat_ptracer1p_max        =   3.12846891229282247E-04
(PID.TID 0000.0001) %MON trcstat_ptracer1p_min        =   0.00000000000000000E+00
(PID.TID 0000.0001) %MON trcstat_ptracer1p_mean       =   7.76494268550825250E-06
(PID.TID 0000.0001) %MON trcstat_ptracer1p_sd         =   4.07263531032505736E-05
(PID.TID 0000.0001) %MON trcstat_ptracer1p_del2       =   6.25803514518656574E-05
(PID.TID 0000.0001) %MON trcstat_ptracer1q_max        =   1.79092180293535715E-04
(PID.TID 0000.0001) %MON trcstat_ptracer1q_min        =   0.00000000000000000E+00
(PID.TID 0000.0001) %MON trcstat_ptracer1q_mean       =   4.46705858383396003E-06
(PID.TID 0000.0001) %MON trcstat_ptracer1q_sd         =   2.34101869915371780E-05
(PID.TID 0000.0001) %MON trcstat_ptracer1q_del2       =   3.59746114123858470E-05
(PID.TID 0000.0001) %MON trcstat_ptracer1r_max        =   1.65897954702997296E-04
(PID.TID 0000.0001) %MON trcstat_ptracer1r_min        =   0.00000000000000000E+00
(PID.TID 0000.0001) %MON trcstat_ptracer1r_mean       =   4.05660518224675404E-06
(PID.TID 0000.0001) %MON trcstat_ptracer1r_sd         =   2.13415250794622011E-05
(PID.TID 0000.0001) %MON trcstat_ptracer1r_del2       =   3.27843172107813405E-05
(PID.TID 0000.0001) %MON trcstat_ptracer1s_max        =   3.49396050845241781E-04
(PID.TID 0000.0001) %MON trcstat_ptracer1s_min        =   0.00000000000000000E+00
(PID.TID 0000.0001) %MON trcstat_ptracer1s_mean       =   8.87872616757729103E-06
(PID.TID 0000.0001) %MON trcstat_ptracer1s_sd         =   4.62386800687299273E-05
(PID.TID 0000.0001) %MON trcstat_ptracer1s_del2       =   7.10874177909806771E-05
(PID.TID 0000.0001) %MON trcstat_ptracer1t_max        =   1.59135472167737960E-04
(PID.TID 0000.0001) %MON trcstat_ptracer1t_min        =   0.00000000000000000E+00
(PID.TID 0000.0001) %MON trcstat_ptracer1t_mean       =   3.65375851495478330E-06
(PID.TID 0000.0001) %MON trcstat_ptracer1t_sd         =   1.93211554395141012E-05
(PID.TID 0000.0001) %MON trcstat_ptracer1t_del2       =   2.96431719468897614E-05
(PID.TID 0000.0001) %MON trcstat_ptracer1u_max        =   1.98883758889243099E-04
(PID.TID 0000.0001) %MON trcstat_ptracer1u_min        =   0.00000000000000000E+00
(PID.TID 0000.0001) %MON trcstat_ptracer1u_mean       =   4.67975611052061514E-06
(PID.TID 0000.0001) %MON trcstat_ptracer1u_sd         =   2.47156690654567848E-05
(PID.TID 0000.0001) %MON trcstat_ptracer1u_del2       =   3.79467725607632048E-05
(PID.TID 0000.0001) %MON trcstat_ptracer1v_max        =   1.84632430096141973E-04
(PID.TID 0000.0001) %MON trcstat_ptracer1v_min        =   0.00000000000000000E+00
(PID.TID 0000.0001) %MON trcstat_ptracer1v_mean       =   4.28620570577993903E-06
(PID.TID 0000.0001) %MON trcstat_ptracer1v_sd         =   2.26581176079019723E-05
(PID.TID 0000.0001) %MON trcstat_ptracer1v_del2       =   3.47781991071294703E-05
(PID.TID 0000.0001) %MON trcstat_ptracer1w_max        =   2.31317917681296196E-04
(PID.TID 0000.0001) %MON trcstat_ptracer1w_min        =   0.00000000000000000E+00
(PID.TID 0000.0001) %MON trcstat_ptracer1w_mean       =   5.64533724223007889E-06
(PID.TID 0000.0001) %MON trcstat_ptracer1w_sd         =   2.97154721979964658E-05
(PID.TID 0000.0001) %MON trcstat_ptracer1w_del2       =   4.56455901774488639E-05
(PID.TID 0000.0001) %MON trcstat_ptracer1x_max        =   1.53260591053211318E-04
(PID.TID 0000.0001) %MON trcstat_ptracer1x_min        =   0.00000000000000000E+00
(PID.TID 0000.0001) %MON trcstat_ptracer1x_mean       =   3.59453466082187057E-06
(PID.TID 0000.0001) %MON trcstat_ptracer1x_sd         =   1.89887606942227935E-05
(PID.TID 0000.0001) %MON trcstat_ptracer1x_del2       =   2.91524235818308568E-05
(PID.TID 0000.0001) // =======================================================
(PID.TID 0000.0001) // End MONITOR ptracers field statistics
(PID.TID 0000.0001) // =======================================================
(PID.TID 0000.0001) // =======================================================
(PID.TID 0000.0001) // Begin MONITOR EXF statistics
(PID.TID 0000.0001) // =======================================================
(PID.TID 0000.0001) %MON exf_tsnumber                 =                     0
(PID.TID 0000.0001) %MON exf_time_sec                 =   0.00000000000000000E+00
(PID.TID 0000.0001) %MON exf_ustress_max              =   0.00000000000000000E+00
(PID.TID 0000.0001) %MON exf_ustress_min              =   0.00000000000000000E+00
(PID.TID 0000.0001) %MON exf_ustress_mean             =   0.00000000000000000E+00
(PID.TID 0000.0001) %MON exf_ustress_sd               =   0.00000000000000000E+00
(PID.TID 0000.0001) %MON exf_ustress_del2             =   0.00000000000000000E+00
(PID.TID 0000.0001) %MON exf_vstress_max              =   0.00000000000000000E+00
(PID.TID 0000.0001) %MON exf_vstress_min              =   0.00000000000000000E+00
(PID.TID 0000.0001) %MON exf_vstress_mean             =   0.00000000000000000E+00
(PID.TID 0000.0001) %MON exf_vstress_sd               =   0.00000000000000000E+00
(PID.TID 0000.0001) %MON exf_vstress_del2             =   0.00000000000000000E+00
(PID.TID 0000.0001) %MON exf_hflux_max                =   0.00000000000000000E+00
(PID.TID 0000.0001) %MON exf_hflux_min                =   0.00000000000000000E+00
(PID.TID 0000.0001) %MON exf_hflux_mean               =   0.00000000000000000E+00
(PID.TID 0000.0001) %MON exf_hflux_sd                 =   0.00000000000000000E+00
(PID.TID 0000.0001) %MON exf_hflux_del2               =   0.00000000000000000E+00
(PID.TID 0000.0001) %MON exf_sflux_max                =   0.00000000000000000E+00
(PID.TID 0000.0001) %MON exf_sflux_min                =   0.00000000000000000E+00
(PID.TID 0000.0001) %MON exf_sflux_mean               =   0.00000000000000000E+00
(PID.TID 0000.0001) %MON exf_sflux_sd                 =   0.00000000000000000E+00
(PID.TID 0000.0001) %MON exf_sflux_del2               =   0.00000000000000000E+00
(PID.TID 0000.0001) %MON exf_uwind_max                =   0.00000000000000000E+00
(PID.TID 0000.0001) %MON exf_uwind_min                =   0.00000000000000000E+00
(PID.TID 0000.0001) %MON exf_uwind_mean               =   0.00000000000000000E+00
(PID.TID 0000.0001) %MON exf_uwind_sd                 =   0.00000000000000000E+00
(PID.TID 0000.0001) %MON exf_uwind_del2               =   0.00000000000000000E+00
(PID.TID 0000.0001) %MON exf_vwind_max                =   0.00000000000000000E+00
(PID.TID 0000.0001) %MON exf_vwind_min                =   0.00000000000000000E+00
(PID.TID 0000.0001) %MON exf_vwind_mean               =   0.00000000000000000E+00
(PID.TID 0000.0001) %MON exf_vwind_sd                 =   0.00000000000000000E+00
(PID.TID 0000.0001) %MON exf_vwind_del2               =   0.00000000000000000E+00
(PID.TID 0000.0001) %MON exf_wspeed_max               =   0.00000000000000000E+00
(PID.TID 0000.0001) %MON exf_wspeed_min               =   0.00000000000000000E+00
(PID.TID 0000.0001) %MON exf_wspeed_mean              =   0.00000000000000000E+00
(PID.TID 0000.0001) %MON exf_wspeed_sd                =   0.00000000000000000E+00
(PID.TID 0000.0001) %MON exf_wspeed_del2              =   0.00000000000000000E+00
(PID.TID 0000.0001) %MON exf_evap_max                 =   0.00000000000000000E+00
(PID.TID 0000.0001) %MON exf_evap_min                 =   0.00000000000000000E+00
(PID.TID 0000.0001) %MON exf_evap_mean                =   0.00000000000000000E+00
(PID.TID 0000.0001) %MON exf_evap_sd                  =   0.00000000000000000E+00
(PID.TID 0000.0001) %MON exf_evap_del2                =   0.00000000000000000E+00
(PID.TID 0000.0001) // =======================================================
(PID.TID 0000.0001) // End MONITOR EXF statistics
(PID.TID 0000.0001) // =======================================================
 EXTERNAL_FIELDS_LOAD,         0 : iP,iLd,i0,i1=   12    0   12    1 ; Wght=  0.5000000000  0.5000000000
 EXTERNAL_FIELDS_LOAD, it=         0 : Reading new data, i0,i1=   12    1 (prev=   12    0 )
(PID.TID 0000.0001)  MDS_READ_FIELD: opening global file: ../input/input/loc1_temp_monsurf.bin
(PID.TID 0000.0001)  MDS_READ_FIELD: opening global file: ../input/input/loc1_temp_monsurf.bin
 PAR           1   561.01240009573303        685.76433040477616       0.20079101818204986     
 PAR           2   375.33994598456076        458.95491950624034       0.20111985270139887     
 PAR           3   250.92953411353201        306.95841587939981       0.20154012611779365     
 PAR           4   167.59836710313547        205.12756071549657       0.20206158783630401     
 PAR           5   111.81412681564008        136.93534188024563       0.20267094668267424     
 PAR           6   74.507388691410540        91.301476915125320       0.20326866644377417     
 PAR           7   49.589209606050069        60.802422449020376       0.20385636929122719     
 PAR           8   32.980866375982380        40.443943025700740       0.20398930598236753     
 PAR           9   21.932972570394195        26.894943112227836       0.20394717917317337     
 PAR          10   14.594070130050303        17.886458572018750       0.20342863146158818     
 PAR          11   9.7237110903779680        11.907716784921263       0.20261931424612370     
 PAR          12   6.4901334009173670        7.9402759636397144       0.20166494543533348     
 PAR          13   4.3379792559103825        5.3048321940683723       0.20120950946487071     
 PAR          14   2.9016466113624531        3.5473438812542133       0.20092074810233751     
 PAR          15   1.7566932216105362        2.3734809308237566       0.30092443433864463     
 PAR          16  0.96300580688967397        1.3001878526916864       0.30020459330113092     
 PAR          17  0.52831797358124200       0.71326630392934598       0.30015652334378312     
 PAR          18  0.28987050316270119       0.39132632464387196       0.30010751935770269     
 PAR          19  0.15905797214835482       0.21471826277024617       0.30005802260078263     
 PAR          20   7.8980394084909811E-002  0.11782620713086639       0.40001107234809419     
 PAR          21   3.5487785689092860E-002   5.2941555208336516E-002  0.40000000099633198     
 PAR          22   1.5945689966605423E-002   2.3788174113114707E-002  0.40000000000008967     
 PAR          23   7.1648603548285471E-003   1.0688715632484021E-002  0.40000000000000002     
 PAR          24   1.7668328105663008E-003   4.8027495228875981E-003   1.0000000000000000     
 PAR          25   2.3911481884973079E-004   6.4998146699449960E-004   1.0000000000000000     
 PAR          26   1.1904825833840951E-005   8.7965425934249638E-005   2.0000000000000000     
 PAR          27   8.0214085501759921E-008   1.6111429761054088E-006   3.0000000000000480     
 PAR          28   1.9883083308773932E-010   3.9936241589416142E-009   3.0000000299201073     
 PAR          29   1.8131021110703500E-013   9.8992039843933721E-012   4.0000001894930746     
 PAR          30   8.2314686479235289E-018   3.3208117242057308E-015   6.0000000779630698     
 PAR          31   6.8447013360041459E-024   2.0403769237460788E-020   8.0000001039506046     
 PAR          32   7.7026958067836252E-031   2.2961412586985006E-027   8.0000000000000231     
 PAR          33   8.6682421842567983E-038   2.5839665772772338E-034   8.0000000000000000     
 PAR          34   1.3201715288849460E-045   2.9078713024261948E-041   10.000000000000000     
 PAR          35   2.7210763290014558E-054   5.9935694685808787E-050   10.000000000000000     
 fe   1.3001300288536281E-003
 fe   1.3001300288536281E-003   3.1571995377458937E-004
(PID.TID 0000.0001) // =======================================================
(PID.TID 0000.0001) // Begin MONITOR dynamic field statistics
(PID.TID 0000.0001) // =======================================================
(PID.TID 0000.0001) %MON time_tsnumber                =                     1
(PID.TID 0000.0001) %MON time_secondsf                =   3.60000000000000000E+03
(PID.TID 0000.0001) %MON dynstat_eta_max              =   0.00000000000000000E+00
(PID.TID 0000.0001) %MON dynstat_eta_min              =   0.00000000000000000E+00
(PID.TID 0000.0001) %MON dynstat_eta_mean             =   0.00000000000000000E+00
(PID.TID 0000.0001) %MON dynstat_eta_sd               =   0.00000000000000000E+00
(PID.TID 0000.0001) %MON dynstat_eta_del2             =   0.00000000000000000E+00
(PID.TID 0000.0001) %MON dynstat_uvel_max             =   0.00000000000000000E+00
(PID.TID 0000.0001) %MON dynstat_uvel_min             =   0.00000000000000000E+00
(PID.TID 0000.0001) %MON dynstat_uvel_mean            =   0.00000000000000000E+00
(PID.TID 0000.0001) %MON dynstat_uvel_sd              =   0.00000000000000000E+00
(PID.TID 0000.0001) %MON dynstat_uvel_del2            =   0.00000000000000000E+00
(PID.TID 0000.0001) %MON dynstat_vvel_max             =   0.00000000000000000E+00
(PID.TID 0000.0001) %MON dynstat_vvel_min             =   0.00000000000000000E+00
(PID.TID 0000.0001) %MON dynstat_vvel_mean            =   0.00000000000000000E+00
(PID.TID 0000.0001) %MON dynstat_vvel_sd              =   0.00000000000000000E+00
(PID.TID 0000.0001) %MON dynstat_vvel_del2            =   0.00000000000000000E+00
(PID.TID 0000.0001) %MON dynstat_wvel_max             =   0.00000000000000000E+00
(PID.TID 0000.0001) %MON dynstat_wvel_min             =   0.00000000000000000E+00
(PID.TID 0000.0001) %MON dynstat_wvel_mean            =   0.00000000000000000E+00
(PID.TID 0000.0001) %MON dynstat_wvel_sd              =   0.00000000000000000E+00
(PID.TID 0000.0001) %MON dynstat_wvel_del2            =   0.00000000000000000E+00
(PID.TID 0000.0001) %MON dynstat_theta_max            =   2.63358173745152904E+01
(PID.TID 0000.0001) %MON dynstat_theta_min            =   2.67370031857477475E+00
(PID.TID 0000.0001) %MON dynstat_theta_mean           =   5.47356700120300399E+00
(PID.TID 0000.0001) %MON dynstat_theta_sd             =   5.19708606269533391E+00
(PID.TID 0000.0001) %MON dynstat_theta_del2           =   0.00000000000000000E+00
(PID.TID 0000.0001) %MON dynstat_salt_max             =   3.50000000000000000E+01
(PID.TID 0000.0001) %MON dynstat_salt_min             =   3.50000000000000000E+01
(PID.TID 0000.0001) %MON dynstat_salt_mean            =   3.50000000000000071E+01
(PID.TID 0000.0001) %MON dynstat_salt_sd              =   7.10542735760100186E-15
(PID.TID 0000.0001) %MON dynstat_salt_del2            =   0.00000000000000000E+00
(PID.TID 0000.0001) %MON dynstat_sst_max              =   2.63358173745152904E+01
(PID.TID 0000.0001) %MON dynstat_sst_min              =   2.63358173745152904E+01
(PID.TID 0000.0001) %MON dynstat_sst_mean             =   2.63358173745152904E+01
(PID.TID 0000.0001) %MON dynstat_sst_sd               =   0.00000000000000000E+00
(PID.TID 0000.0001) %MON dynstat_sst_del2             =   0.00000000000000000E+00
(PID.TID 0000.0001) %MON dynstat_sss_max              =   3.50000000000000000E+01
(PID.TID 0000.0001) %MON dynstat_sss_min              =   3.50000000000000000E+01
(PID.TID 0000.0001) %MON dynstat_sss_mean             =   3.50000000000000000E+01
(PID.TID 0000.0001) %MON dynstat_sss_sd               =   0.00000000000000000E+00
(PID.TID 0000.0001) %MON dynstat_sss_del2             =   0.00000000000000000E+00
(PID.TID 0000.0001) %MON forcing_qnet_max             =   0.00000000000000000E+00
(PID.TID 0000.0001) %MON forcing_qnet_min             =   0.00000000000000000E+00
(PID.TID 0000.0001) %MON forcing_qnet_mean            =   0.00000000000000000E+00
(PID.TID 0000.0001) %MON forcing_qnet_sd              =   0.00000000000000000E+00
(PID.TID 0000.0001) %MON forcing_qnet_del2            =   0.00000000000000000E+00
(PID.TID 0000.0001) %MON forcing_qsw_max              =   0.00000000000000000E+00
(PID.TID 0000.0001) %MON forcing_qsw_min              =   0.00000000000000000E+00
(PID.TID 0000.0001) %MON forcing_qsw_mean             =   0.00000000000000000E+00
(PID.TID 0000.0001) %MON forcing_qsw_sd               =   0.00000000000000000E+00
(PID.TID 0000.0001) %MON forcing_qsw_del2             =   0.00000000000000000E+00
(PID.TID 0000.0001) %MON forcing_empmr_max            =   0.00000000000000000E+00
(PID.TID 0000.0001) %MON forcing_empmr_min            =   0.00000000000000000E+00
(PID.TID 0000.0001) %MON forcing_empmr_mean           =   0.00000000000000000E+00
(PID.TID 0000.0001) %MON forcing_empmr_sd             =   0.00000000000000000E+00
(PID.TID 0000.0001) %MON forcing_empmr_del2           =   0.00000000000000000E+00
(PID.TID 0000.0001) %MON forcing_fu_max               =   0.00000000000000000E+00
(PID.TID 0000.0001) %MON forcing_fu_min               =   0.00000000000000000E+00
(PID.TID 0000.0001) %MON forcing_fu_mean              =   0.00000000000000000E+00
(PID.TID 0000.0001) %MON forcing_fu_sd                =   0.00000000000000000E+00
(PID.TID 0000.0001) %MON forcing_fu_del2              =   0.00000000000000000E+00
(PID.TID 0000.0001) %MON forcing_fv_max               =   0.00000000000000000E+00
(PID.TID 0000.0001) %MON forcing_fv_min               =   0.00000000000000000E+00
(PID.TID 0000.0001) %MON forcing_fv_mean              =   0.00000000000000000E+00
(PID.TID 0000.0001) %MON forcing_fv_sd                =   0.00000000000000000E+00
(PID.TID 0000.0001) %MON forcing_fv_del2              =   0.00000000000000000E+00
(PID.TID 0000.0001) %MON advcfl_uvel_max              =   0.00000000000000000E+00
(PID.TID 0000.0001) %MON advcfl_vvel_max              =   0.00000000000000000E+00
(PID.TID 0000.0001) %MON advcfl_wvel_max              =   0.00000000000000000E+00
(PID.TID 0000.0001) %MON advcfl_W_hf_max              =   0.00000000000000000E+00
(PID.TID 0000.0001) %MON pe_b_mean                    =   0.00000000000000000E+00
(PID.TID 0000.0001) %MON ke_max                       =   0.00000000000000000E+00
(PID.TID 0000.0001) %MON ke_mean                      =   0.00000000000000000E+00
(PID.TID 0000.0001) %MON ke_vol                       =   4.11997678834846094E+13
(PID.TID 0000.0001) %MON vort_r_min                   =   0.00000000000000000E+00
(PID.TID 0000.0001) %MON vort_r_max                   =   0.00000000000000000E+00
(PID.TID 0000.0001) %MON vort_a_mean                  =  -4.50678018366247268E-05
(PID.TID 0000.0001) %MON vort_a_sd                    =  -4.13590306276513837E-25
(PID.TID 0000.0001) %MON vort_p_mean                  =  -4.50678018366247268E-05
(PID.TID 0000.0001) %MON vort_p_sd                    =   0.00000000000000000E+00
(PID.TID 0000.0001) %MON surfExpan_theta_mean         =   0.00000000000000000E+00
(PID.TID 0000.0001) %MON surfExpan_salt_mean          =   0.00000000000000000E+00
(PID.TID 0000.0001) // =======================================================
(PID.TID 0000.0001) // End MONITOR dynamic field statistics
(PID.TID 0000.0001) // =======================================================
(PID.TID 0000.0001) // =======================================================
(PID.TID 0000.0001) // Begin MONITOR ptracer field statistics
(PID.TID 0000.0001) // =======================================================
(PID.TID 0000.0001) %MON trcstat_ptracer01_max        =   2.00000000000000045E+03
(PID.TID 0000.0001) %MON trcstat_ptracer01_min        =   1.99999977193245991E+03
(PID.TID 0000.0001) %MON trcstat_ptracer01_mean       =   1.99999999355017258E+03
(PID.TID 0000.0001) %MON trcstat_ptracer01_sd         =   3.51750970008811784E-05
(PID.TID 0000.0001) %MON trcstat_ptracer01_del2       =   0.00000000000000000E+00
(PID.TID 0000.0001) %MON trcstat_ptracer02_max        =   2.55976591285739345E-02
(PID.TID 0000.0001) %MON trcstat_ptracer02_min        =   1.87633018297455428E-07
(PID.TID 0000.0001) %MON trcstat_ptracer02_mean       =   6.03754907717360336E-04
(PID.TID 0000.0001) %MON trcstat_ptracer02_sd         =   3.24553600654565099E-03
(PID.TID 0000.0001) %MON trcstat_ptracer02_del2       =   0.00000000000000000E+00
(PID.TID 0000.0001) %MON trcstat_ptracer03_max        =   1.83191829564197349E-02
(PID.TID 0000.0001) %MON trcstat_ptracer03_min        =   3.87914897193938127E-06
(PID.TID 0000.0001) %MON trcstat_ptracer03_mean       =   6.04869858926668680E-04
(PID.TID 0000.0001) %MON trcstat_ptracer03_sd         =   1.94467424024099677E-03
(PID.TID 0000.0001) %MON trcstat_ptracer03_del2       =   0.00000000000000000E+00
(PID.TID 0000.0001) %MON trcstat_ptracer04_max        =   3.39034979468865600E+01
(PID.TID 0000.0001) %MON trcstat_ptracer04_min        =   4.63855099908686910E-02
(PID.TID 0000.0001) %MON trcstat_ptracer04_mean       =   2.35023910725243717E+01
(PID.TID 0000.0001) %MON trcstat_ptracer04_sd         =   7.81619899852903899E+00
(PID.TID 0000.0001) %MON trcstat_ptracer04_del2       =   0.00000000000000000E+00
(PID.TID 0000.0001) %MON trcstat_ptracer05_max        =   2.24369993162915105E+00
(PID.TID 0000.0001) %MON trcstat_ptracer05_min        =   2.10251464854409709E-01
(PID.TID 0000.0001) %MON trcstat_ptracer05_mean       =   1.58213384693187908E+00
(PID.TID 0000.0001) %MON trcstat_ptracer05_sd         =   4.67350373267995667E-01
(PID.TID 0000.0001) %MON trcstat_ptracer05_del2       =   0.00000000000000000E+00
(PID.TID 0000.0001) %MON trcstat_ptracer06_max        =   3.93874013478973524E+01
(PID.TID 0000.0001) %MON trcstat_ptracer06_min        =   1.22479642163762525E+00
(PID.TID 0000.0001) %MON trcstat_ptracer06_mean       =   2.96218893124874079E+01
(PID.TID 0000.0001) %MON trcstat_ptracer06_sd         =   1.12705870151547156E+01
(PID.TID 0000.0001) %MON trcstat_ptracer06_del2       =   0.00000000000000000E+00
(PID.TID 0000.0001) %MON trcstat_ptracer07_max        =   1.30013002885362807E-03
(PID.TID 0000.0001) %MON trcstat_ptracer07_min        =   1.29998539359242279E-03
(PID.TID 0000.0001) %MON trcstat_ptracer07_mean       =   1.29998590613320756E-03
(PID.TID 0000.0001) %MON trcstat_ptracer07_sd         =   7.72286805421434711E-09
(PID.TID 0000.0001) %MON trcstat_ptracer07_del2       =   0.00000000000000000E+00
(PID.TID 0000.0001) %MON trcstat_ptracer08_max        =   1.89529570881846916E-04
(PID.TID 0000.0001) %MON trcstat_ptracer08_min        =   4.23751410044962333E-38
(PID.TID 0000.0001) %MON trcstat_ptracer08_mean       =   5.65127863151975095E-06
(PID.TID 0000.0001) %MON trcstat_ptracer08_sd         =   2.96283724388973951E-05
(PID.TID 0000.0001) %MON trcstat_ptracer08_del2       =   0.00000000000000000E+00
(PID.TID 0000.0001) %MON trcstat_ptracer09_max        =   8.18055610843714115E-02
(PID.TID 0000.0001) %MON trcstat_ptracer09_min        =   2.88350046910807875E-34
(PID.TID 0000.0001) %MON trcstat_ptracer09_mean       =   3.43508660867357157E-03
(PID.TID 0000.0001) %MON trcstat_ptracer09_sd         =   1.47882934280540550E-02
(PID.TID 0000.0001) %MON trcstat_ptracer09_del2       =   0.00000000000000000E+00
(PID.TID 0000.0001) %MON trcstat_ptracer10_max        =   5.11284756777321322E-03
(PID.TID 0000.0001) %MON trcstat_ptracer10_min        =   1.80218779319254922E-35
(PID.TID 0000.0001) %MON trcstat_ptracer10_mean       =   2.14692913042098223E-04
(PID.TID 0000.0001) %MON trcstat_ptracer10_sd         =   9.24268339253378436E-04
(PID.TID 0000.0001) %MON trcstat_ptracer10_del2       =   0.00000000000000000E+00
(PID.TID 0000.0001) %MON trcstat_ptracer11_max        =   5.11284720806154513E-06
(PID.TID 0000.0001) %MON trcstat_ptracer11_min        =   1.80218508477224750E-38
(PID.TID 0000.0001) %MON trcstat_ptracer11_mean       =   2.14692913348473700E-07
(PID.TID 0000.0001) %MON trcstat_ptracer11_sd         =   9.24268338911610749E-07
(PID.TID 0000.0001) %MON trcstat_ptracer11_del2       =   0.00000000000000000E+00
(PID.TID 0000.0001) %MON trcstat_ptracer12_max        =   9.69686814988345892E-05
(PID.TID 0000.0001) %MON trcstat_ptracer12_min        =   3.46705699127696436E-38
(PID.TID 0000.0001) %MON trcstat_ptracer12_mean       =   2.89135972057771074E-06
(PID.TID 0000.0001) %MON trcstat_ptracer12_sd         =   1.51587119519588769E-05
(PID.TID 0000.0001) %MON trcstat_ptracer12_del2       =   0.00000000000000000E+00
(PID.TID 0000.0001) %MON trcstat_ptracer13_max        =   4.35573122289016103E-03
(PID.TID 0000.0001) %MON trcstat_ptracer13_min        =   1.87818228480504884E-05
(PID.TID 0000.0001) %MON trcstat_ptracer13_mean       =   1.26224243359376116E-03
(PID.TID 0000.0001) %MON trcstat_ptracer13_sd         =   1.54501210882595228E-03
(PID.TID 0000.0001) %MON trcstat_ptracer13_del2       =   0.00000000000000000E+00
(PID.TID 0000.0001) %MON trcstat_ptracer14_max        =   2.72233201430635064E-04
(PID.TID 0000.0001) %MON trcstat_ptracer14_min        =   1.17386392800315553E-06
(PID.TID 0000.0001) %MON trcstat_ptracer14_mean       =   7.88901520996100727E-05
(PID.TID 0000.0001) %MON trcstat_ptracer14_sd         =   9.65632568016220173E-05
(PID.TID 0000.0001) %MON trcstat_ptracer14_del2       =   0.00000000000000000E+00
(PID.TID 0000.0001) %MON trcstat_ptracer15_max        =   1.62495603233489445E-02
(PID.TID 0000.0001) %MON trcstat_ptracer15_min        =   1.13869254482777986E-03
(PID.TID 0000.0001) %MON trcstat_ptracer15_mean       =   5.48895316301969104E-03
(PID.TID 0000.0001) %MON trcstat_ptracer15_sd         =   5.17154512678905023E-03
(PID.TID 0000.0001) %MON trcstat_ptracer15_del2       =   0.00000000000000000E+00
(PID.TID 0000.0001) %MON trcstat_ptracer16_max        =   2.72233217193455939E-07
(PID.TID 0000.0001) %MON trcstat_ptracer16_min        =   1.17386379934091106E-09
(PID.TID 0000.0001) %MON trcstat_ptracer16_mean       =   7.88901526257911401E-08
(PID.TID 0000.0001) %MON trcstat_ptracer16_sd         =   9.65632588590699856E-08
(PID.TID 0000.0001) %MON trcstat_ptracer16_del2       =   0.00000000000000000E+00
(PID.TID 0000.0001) %MON trcstat_ptracer17_max        =   0.00000000000000000E+00
(PID.TID 0000.0001) %MON trcstat_ptracer17_min        =   0.00000000000000000E+00
(PID.TID 0000.0001) %MON trcstat_ptracer17_mean       =   0.00000000000000000E+00
(PID.TID 0000.0001) %MON trcstat_ptracer17_sd         =   0.00000000000000000E+00
(PID.TID 0000.0001) %MON trcstat_ptracer17_del2       =   0.00000000000000000E+00
(PID.TID 0000.0001) %MON trcstat_ptracer18_max        =   8.80004713826484670E-04
(PID.TID 0000.0001) %MON trcstat_ptracer18_min        =   1.14551062707299695E-34
(PID.TID 0000.0001) %MON trcstat_ptracer18_mean       =   2.62651192586242401E-05
(PID.TID 0000.0001) %MON trcstat_ptracer18_sd         =   1.37642812388654091E-04
(PID.TID 0000.0001) %MON trcstat_ptracer18_del2       =   0.00000000000000000E+00
(PID.TID 0000.0001) %MON trcstat_ptracer19_max        =   8.90153315373129494E-04
(PID.TID 0000.0001) %MON trcstat_ptracer19_min        =   1.14551062707299695E-34
(PID.TID 0000.0001) %MON trcstat_ptracer19_mean       =   2.65057378652142864E-05
(PID.TID 0000.0001) %MON trcstat_ptracer19_sd         =   1.39064028960964020E-04
(PID.TID 0000.0001) %MON trcstat_ptracer19_del2       =   0.00000000000000000E+00
(PID.TID 0000.0001) %MON trcstat_ptracer20_max        =   8.77858949177807340E-04
(PID.TID 0000.0001) %MON trcstat_ptracer20_min        =   3.94524937720076233E-37
(PID.TID 0000.0001) %MON trcstat_ptracer20_mean       =   2.61753794139102825E-05
(PID.TID 0000.0001) %MON trcstat_ptracer20_sd         =   1.37232054473918313E-04
(PID.TID 0000.0001) %MON trcstat_ptracer20_del2       =   0.00000000000000000E+00
(PID.TID 0000.0001) %MON trcstat_ptracer21_max        =   8.84131867944376658E-04
(PID.TID 0000.0001) %MON trcstat_ptracer21_min        =   3.94524937720076233E-37
(PID.TID 0000.0001) %MON trcstat_ptracer21_mean       =   2.63538917812611478E-05
(PID.TID 0000.0001) %MON trcstat_ptracer21_sd         =   1.38223643817966910E-04
(PID.TID 0000.0001) %MON trcstat_ptracer21_del2       =   0.00000000000000000E+00
(PID.TID 0000.0001) %MON trcstat_ptracer22_max        =   8.87206064598712422E-04
(PID.TID 0000.0001) %MON trcstat_ptracer22_min        =   1.14551062707299695E-34
(PID.TID 0000.0001) %MON trcstat_ptracer22_mean       =   2.64285878571583799E-05
(PID.TID 0000.0001) %MON trcstat_ptracer22_sd         =   1.38622619792515950E-04
(PID.TID 0000.0001) %MON trcstat_ptracer22_del2       =   0.00000000000000000E+00
(PID.TID 0000.0001) %MON trcstat_ptracer23_max        =   8.77858949177830216E-04
(PID.TID 0000.0001) %MON trcstat_ptracer23_min        =   3.94524937720076233E-37
(PID.TID 0000.0001) %MON trcstat_ptracer23_mean       =   2.61753794139110008E-05
(PID.TID 0000.0001) %MON trcstat_ptracer23_sd         =   1.37232054473922081E-04
(PID.TID 0000.0001) %MON trcstat_ptracer23_del2       =   0.00000000000000000E+00
(PID.TID 0000.0001) %MON trcstat_ptracer24_max        =   8.84391036866210819E-04
(PID.TID 0000.0001) %MON trcstat_ptracer24_min        =   3.94524937720076233E-37
(PID.TID 0000.0001) %MON trcstat_ptracer24_mean       =   2.63716435940654303E-05
(PID.TID 0000.0001) %MON trcstat_ptracer24_sd         =   1.38301852617982309E-04
(PID.TID 0000.0001) %MON trcstat_ptracer24_del2       =   0.00000000000000000E+00
(PID.TID 0000.0001) %MON trcstat_ptracer25_max        =   8.82126569859503881E-04
(PID.TID 0000.0001) %MON trcstat_ptracer25_min        =   3.94524937720076233E-37
(PID.TID 0000.0001) %MON trcstat_ptracer25_mean       =   2.62737619759177540E-05
(PID.TID 0000.0001) %MON trcstat_ptracer25_sd         =   1.37820391125672599E-04
(PID.TID 0000.0001) %MON trcstat_ptracer25_del2       =   0.00000000000000000E+00
(PID.TID 0000.0001) %MON trcstat_ptracer26_max        =   8.77858949177855695E-04
(PID.TID 0000.0001) %MON trcstat_ptracer26_min        =   3.94524937720076233E-37
(PID.TID 0000.0001) %MON trcstat_ptracer26_mean       =   2.61754171667528284E-05
(PID.TID 0000.0001) %MON trcstat_ptracer26_sd         =   1.37232050051935785E-04
(PID.TID 0000.0001) %MON trcstat_ptracer26_del2       =   0.00000000000000000E+00
(PID.TID 0000.0001) %MON trcstat_ptracer27_max        =   8.83190790821694323E-04
(PID.TID 0000.0001) %MON trcstat_ptracer27_min        =   3.94524937720076233E-37
(PID.TID 0000.0001) %MON trcstat_ptracer27_mean       =   2.63272287748153290E-05
(PID.TID 0000.0001) %MON trcstat_ptracer27_sd         =   1.38083494924528849E-04
(PID.TID 0000.0001) %MON trcstat_ptracer27_del2       =   0.00000000000000000E+00
(PID.TID 0000.0001) %MON trcstat_ptracer28_max        =   8.77840407168722198E-04
(PID.TID 0000.0001) %MON trcstat_ptracer28_min        =   1.14551062707299695E-34
(PID.TID 0000.0001) %MON trcstat_ptracer28_mean       =   2.61753794139107365E-05
(PID.TID 0000.0001) %MON trcstat_ptracer28_sd         =   1.37214534229957531E-04
(PID.TID 0000.0001) %MON trcstat_ptracer28_del2       =   0.00000000000000000E+00
(PID.TID 0000.0001) %MON trcstat_ptracer29_max        =   8.84397602954606257E-04
(PID.TID 0000.0001) %MON trcstat_ptracer29_min        =   3.94524937720076233E-37
(PID.TID 0000.0001) %MON trcstat_ptracer29_mean       =   2.63687867217713254E-05
(PID.TID 0000.0001) %MON trcstat_ptracer29_sd         =   1.38250044082361594E-04
(PID.TID 0000.0001) %MON trcstat_ptracer29_del2       =   0.00000000000000000E+00
(PID.TID 0000.0001) %MON trcstat_ptracer30_max        =   8.88296751818885150E-04
(PID.TID 0000.0001) %MON trcstat_ptracer30_min        =   1.14551062707299695E-34
(PID.TID 0000.0001) %MON trcstat_ptracer30_mean       =   2.64593630097355340E-05
(PID.TID 0000.0001) %MON trcstat_ptracer30_sd         =   1.38782412312040115E-04
(PID.TID 0000.0001) %MON trcstat_ptracer30_del2       =   0.00000000000000000E+00
(PID.TID 0000.0001) %MON trcstat_ptracer31_max        =   8.77840407236900734E-04
(PID.TID 0000.0001) %MON trcstat_ptracer31_min        =   1.14551062707299695E-34
(PID.TID 0000.0001) %MON trcstat_ptracer31_mean       =   2.61753794158158966E-05
(PID.TID 0000.0001) %MON trcstat_ptracer31_sd         =   1.37214534240216306E-04
(PID.TID 0000.0001) %MON trcstat_ptracer31_del2       =   0.00000000000000000E+00
(PID.TID 0000.0001) %MON trcstat_ptracer32_max        =   8.77858949177773187E-04
(PID.TID 0000.0001) %MON trcstat_ptracer32_min        =   3.94524937720076233E-37
(PID.TID 0000.0001) %MON trcstat_ptracer32_mean       =   2.61753794139088188E-05
(PID.TID 0000.0001) %MON trcstat_ptracer32_sd         =   1.37232054473911672E-04
(PID.TID 0000.0001) %MON trcstat_ptracer32_del2       =   0.00000000000000000E+00
(PID.TID 0000.0001) %MON trcstat_ptracer33_max        =   8.77858949177793787E-04
(PID.TID 0000.0001) %MON trcstat_ptracer33_min        =   3.94524937720076233E-37
(PID.TID 0000.0001) %MON trcstat_ptracer33_mean       =   2.61753794139094083E-05
(PID.TID 0000.0001) %MON trcstat_ptracer33_sd         =   1.37232054473914979E-04
(PID.TID 0000.0001) %MON trcstat_ptracer33_del2       =   0.00000000000000000E+00
(PID.TID 0000.0001) %MON trcstat_ptracer34_max        =   8.77858949177782403E-04
(PID.TID 0000.0001) %MON trcstat_ptracer34_min        =   3.94524937720076233E-37
(PID.TID 0000.0001) %MON trcstat_ptracer34_mean       =   2.61753794139090797E-05
(PID.TID 0000.0001) %MON trcstat_ptracer34_sd         =   1.37232054473913136E-04
(PID.TID 0000.0001) %MON trcstat_ptracer34_del2       =   0.00000000000000000E+00
(PID.TID 0000.0001) %MON trcstat_ptracer35_max        =   8.77858949177808641E-04
(PID.TID 0000.0001) %MON trcstat_ptracer35_min        =   3.94524937720076233E-37
(PID.TID 0000.0001) %MON trcstat_ptracer35_mean       =   2.61753794139103231E-05
(PID.TID 0000.0001) %MON trcstat_ptracer35_sd         =   1.37232054473918530E-04
(PID.TID 0000.0001) %MON trcstat_ptracer35_del2       =   0.00000000000000000E+00
(PID.TID 0000.0001) %MON trcstat_ptracer36_max        =   8.77858949177906219E-04
(PID.TID 0000.0001) %MON trcstat_ptracer36_min        =   3.94524937720076233E-37
(PID.TID 0000.0001) %MON trcstat_ptracer36_mean       =   2.61753794139131082E-05
(PID.TID 0000.0001) %MON trcstat_ptracer36_sd         =   1.37232054473930781E-04
(PID.TID 0000.0001) %MON trcstat_ptracer36_del2       =   0.00000000000000000E+00
(PID.TID 0000.0001) %MON trcstat_ptracer37_max        =   8.81181517931981244E-04
(PID.TID 0000.0001) %MON trcstat_ptracer37_min        =   3.94524937720076233E-37
(PID.TID 0000.0001) %MON trcstat_ptracer37_mean       =   2.62970402208660452E-05
(PID.TID 0000.0001) %MON trcstat_ptracer37_sd         =   1.37846807197493723E-04
(PID.TID 0000.0001) %MON trcstat_ptracer37_del2       =   0.00000000000000000E+00
(PID.TID 0000.0001) %MON trcstat_ptracer38_max        =   8.77858949177901231E-04
(PID.TID 0000.0001) %MON trcstat_ptracer38_min        =   3.94524937720076233E-37
(PID.TID 0000.0001) %MON trcstat_ptracer38_mean       =   2.61753794139129557E-05
(PID.TID 0000.0001) %MON trcstat_ptracer38_sd         =   1.37232054473929995E-04
(PID.TID 0000.0001) %MON trcstat_ptracer38_del2       =   0.00000000000000000E+00
(PID.TID 0000.0001) %MON trcstat_ptracer39_max        =   8.77840407168890683E-04
(PID.TID 0000.0001) %MON trcstat_ptracer39_min        =   1.14551062707299695E-34
(PID.TID 0000.0001) %MON trcstat_ptracer39_mean       =   2.61753794139157475E-05
(PID.TID 0000.0001) %MON trcstat_ptracer39_sd         =   1.37214534229983715E-04
(PID.TID 0000.0001) %MON trcstat_ptracer39_del2       =   0.00000000000000000E+00
(PID.TID 0000.0001) %MON trcstat_ptracer40_max        =   8.82644450559558766E-04
(PID.TID 0000.0001) %MON trcstat_ptracer40_min        =   3.94524937720076233E-37
(PID.TID 0000.0001) %MON trcstat_ptracer40_mean       =   2.63257175823542476E-05
(PID.TID 0000.0001) %MON trcstat_ptracer40_sd         =   1.38003028752322287E-04
(PID.TID 0000.0001) %MON trcstat_ptracer40_del2       =   0.00000000000000000E+00
(PID.TID 0000.0001) %MON trcstat_ptracer41_max        =   8.77840407236901168E-04
(PID.TID 0000.0001) %MON trcstat_ptracer41_min        =   1.14551062707299695E-34
(PID.TID 0000.0001) %MON trcstat_ptracer41_mean       =   2.61753794158159135E-05
(PID.TID 0000.0001) %MON trcstat_ptracer41_sd         =   1.37214534240216360E-04
(PID.TID 0000.0001) %MON trcstat_ptracer41_del2       =   0.00000000000000000E+00
(PID.TID 0000.0001) %MON trcstat_ptracer42_max        =   8.77840407168816415E-04
(PID.TID 0000.0001) %MON trcstat_ptracer42_min        =   1.14551062707299695E-34
(PID.TID 0000.0001) %MON trcstat_ptracer42_mean       =   2.61754903768904944E-05
(PID.TID 0000.0001) %MON trcstat_ptracer42_sd         =   1.37214522586736910E-04
(PID.TID 0000.0001) %MON trcstat_ptracer42_del2       =   0.00000000000000000E+00
(PID.TID 0000.0001) %MON trcstat_ptracer43_max        =   8.78555860539929076E-04
(PID.TID 0000.0001) %MON trcstat_ptracer43_min        =   1.14551062707299695E-34
(PID.TID 0000.0001) %MON trcstat_ptracer43_mean       =   2.62264496768631481E-05
(PID.TID 0000.0001) %MON trcstat_ptracer43_sd         =   1.37431493977962626E-04
(PID.TID 0000.0001) %MON trcstat_ptracer43_del2       =   0.00000000000000000E+00
(PID.TID 0000.0001) %MON trcstat_ptracer44_max        =   8.84611790236393132E-04
(PID.TID 0000.0001) %MON trcstat_ptracer44_min        =   3.94524937720076233E-37
(PID.TID 0000.0001) %MON trcstat_ptracer44_mean       =   2.63673991912896364E-05
(PID.TID 0000.0001) %MON trcstat_ptracer44_sd         =   1.38298635126291860E-04
(PID.TID 0000.0001) %MON trcstat_ptracer44_del2       =   0.00000000000000000E+00
(PID.TID 0000.0001) %MON trcstat_ptracer45_max        =   8.77840407236852921E-04
(PID.TID 0000.0001) %MON trcstat_ptracer45_min        =   1.14551062707299695E-34
(PID.TID 0000.0001) %MON trcstat_ptracer45_mean       =   2.61753794158144837E-05
(PID.TID 0000.0001) %MON trcstat_ptracer45_sd         =   1.37214534240208879E-04
(PID.TID 0000.0001) %MON trcstat_ptracer45_del2       =   0.00000000000000000E+00
(PID.TID 0000.0001) %MON trcstat_ptracer46_max        =   8.80276739659601078E-04
(PID.TID 0000.0001) %MON trcstat_ptracer46_min        =   3.94524937720076233E-37
(PID.TID 0000.0001) %MON trcstat_ptracer46_mean       =   2.62622292776583895E-05
(PID.TID 0000.0001) %MON trcstat_ptracer46_sd         =   1.37666559919299151E-04
(PID.TID 0000.0001) %MON trcstat_ptracer46_del2       =   0.00000000000000000E+00
(PID.TID 0000.0001) %MON trcstat_ptracer47_max        =   8.77840407168753532E-04
(PID.TID 0000.0001) %MON trcstat_ptracer47_min        =   1.14551062707299695E-34
(PID.TID 0000.0001) %MON trcstat_ptracer47_mean       =   2.61753794139116716E-05
(PID.TID 0000.0001) %MON trcstat_ptracer47_sd         =   1.37214534229962410E-04
(PID.TID 0000.0001) %MON trcstat_ptracer47_del2       =   0.00000000000000000E+00
(PID.TID 0000.0001) %MON trcstat_ptracer48_max        =   8.78039319716357285E-04
(PID.TID 0000.0001) %MON trcstat_ptracer48_min        =   3.94524937720076233E-37
(PID.TID 0000.0001) %MON trcstat_ptracer48_mean       =   2.62127855357166667E-05
(PID.TID 0000.0001) %MON trcstat_ptracer48_sd         =   1.37386260396889465E-04
(PID.TID 0000.0001) %MON trcstat_ptracer48_del2       =   0.00000000000000000E+00
(PID.TID 0000.0001) %MON trcstat_ptracer49_max        =   8.85476406831974309E-04
(PID.TID 0000.0001) %MON trcstat_ptracer49_min        =   3.94524937720076233E-37
(PID.TID 0000.0001) %MON trcstat_ptracer49_mean       =   2.63957703767320320E-05
(PID.TID 0000.0001) %MON trcstat_ptracer49_sd         =   1.38448775924362386E-04
(PID.TID 0000.0001) %MON trcstat_ptracer49_del2       =   0.00000000000000000E+00
(PID.TID 0000.0001) %MON trcstat_ptracer50_max        =   8.77840407168722307E-04
(PID.TID 0000.0001) %MON trcstat_ptracer50_min        =   1.14551062707299695E-34
(PID.TID 0000.0001) %MON trcstat_ptracer50_mean       =   2.61753906840463249E-05
(PID.TID 0000.0001) %MON trcstat_ptracer50_sd         =   1.37214532559092099E-04
(PID.TID 0000.0001) %MON trcstat_ptracer50_del2       =   0.00000000000000000E+00
(PID.TID 0000.0001) %MON trcstat_ptracer51_max        =   8.77858949178062127E-04
(PID.TID 0000.0001) %MON trcstat_ptracer51_min        =   3.94524937720076233E-37
(PID.TID 0000.0001) %MON trcstat_ptracer51_mean       =   2.61753794139176686E-05
(PID.TID 0000.0001) %MON trcstat_ptracer51_sd         =   1.37232054473955067E-04
(PID.TID 0000.0001) %MON trcstat_ptracer51_del2       =   0.00000000000000000E+00
(PID.TID 0000.0001) %MON trcstat_ptracer52_max        =   8.86843576610164136E-04
(PID.TID 0000.0001) %MON trcstat_ptracer52_min        =   1.14551062707299695E-34
(PID.TID 0000.0001) %MON trcstat_ptracer52_mean       =   2.64233333616268342E-05
(PID.TID 0000.0001) %MON trcstat_ptracer52_sd         =   1.38585486550456163E-04
(PID.TID 0000.0001) %MON trcstat_ptracer52_del2       =   0.00000000000000000E+00
(PID.TID 0000.0001) %MON trcstat_ptracer53_max        =   8.77840407236827333E-04
(PID.TID 0000.0001) %MON trcstat_ptracer53_min        =   1.14551062707299695E-34
(PID.TID 0000.0001) %MON trcstat_ptracer53_mean       =   2.61753794158137248E-05
(PID.TID 0000.0001) %MON trcstat_ptracer53_sd         =   1.37214534240204895E-04
(PID.TID 0000.0001) %MON trcstat_ptracer53_del2       =   0.00000000000000000E+00
(PID.TID 0000.0001) %MON trcstat_ptracer54_max        =   8.88422005000054122E-04
(PID.TID 0000.0001) %MON trcstat_ptracer54_min        =   1.14551062707299695E-34
(PID.TID 0000.0001) %MON trcstat_ptracer54_mean       =   2.64601151498191308E-05
(PID.TID 0000.0001) %MON trcstat_ptracer54_sd         =   1.38806808862241264E-04
(PID.TID 0000.0001) %MON trcstat_ptracer54_del2       =   0.00000000000000000E+00
(PID.TID 0000.0001) %MON trcstat_ptracer55_max        =   8.83169890289777827E-04
(PID.TID 0000.0001) %MON trcstat_ptracer55_min        =   3.94524937720076233E-37
(PID.TID 0000.0001) %MON trcstat_ptracer55_mean       =   2.63377455319373008E-05
(PID.TID 0000.0001) %MON trcstat_ptracer55_sd         =   1.38081299824827992E-04
(PID.TID 0000.0001) %MON trcstat_ptracer55_del2       =   0.00000000000000000E+00
(PID.TID 0000.0001) %MON trcstat_ptracer56_max        =   8.77858949177811676E-04
(PID.TID 0000.0001) %MON trcstat_ptracer56_min        =   3.94524937720076233E-37
(PID.TID 0000.0001) %MON trcstat_ptracer56_mean       =   2.61753794139104180E-05
(PID.TID 0000.0001) %MON trcstat_ptracer56_sd         =   1.37232054473919045E-04
(PID.TID 0000.0001) %MON trcstat_ptracer56_del2       =   0.00000000000000000E+00
(PID.TID 0000.0001) %MON trcstat_ptracer57_max        =   8.87201081753873858E-04
(PID.TID 0000.0001) %MON trcstat_ptracer57_min        =   1.14551062707299695E-34
(PID.TID 0000.0001) %MON trcstat_ptracer57_mean       =   2.64313813038109116E-05
(PID.TID 0000.0001) %MON trcstat_ptracer57_sd         =   1.38633429368482540E-04
(PID.TID 0000.0001) %MON trcstat_ptracer57_del2       =   0.00000000000000000E+00
(PID.TID 0000.0001) %MON trcstat_ptracer58_max        =   8.77840407236919491E-04
(PID.TID 0000.0001) %MON trcstat_ptracer58_min        =   1.14551062707299695E-34
(PID.TID 0000.0001) %MON trcstat_ptracer58_mean       =   2.61753794158164522E-05
(PID.TID 0000.0001) %MON trcstat_ptracer58_sd         =   1.37214534240219261E-04
(PID.TID 0000.0001) %MON trcstat_ptracer58_del2       =   0.00000000000000000E+00
(PID.TID 0000.0001) %MON trcstat_ptracer59_max        =   8.77858949177919554E-04
(PID.TID 0000.0001) %MON trcstat_ptracer59_min        =   3.94524937720076233E-37
(PID.TID 0000.0001) %MON trcstat_ptracer59_mean       =   2.61753794139135012E-05
(PID.TID 0000.0001) %MON trcstat_ptracer59_sd         =   1.37232054473932814E-04
(PID.TID 0000.0001) %MON trcstat_ptracer59_del2       =   0.00000000000000000E+00
(PID.TID 0000.0001) %MON trcstat_ptracer60_max        =   8.85842123269552084E-04
(PID.TID 0000.0001) %MON trcstat_ptracer60_min        =   3.94524937720076233E-37
(PID.TID 0000.0001) %MON trcstat_ptracer60_mean       =   2.63936952421470861E-05
(PID.TID 0000.0001) %MON trcstat_ptracer60_sd         =   1.38426540114384132E-04
(PID.TID 0000.0001) %MON trcstat_ptracer60_del2       =   0.00000000000000000E+00
(PID.TID 0000.0001) %MON trcstat_ptracer61_max        =   8.83608347868831208E-04
(PID.TID 0000.0001) %MON trcstat_ptracer61_min        =   3.94524937720076233E-37
(PID.TID 0000.0001) %MON trcstat_ptracer61_mean       =   2.63459429509314074E-05
(PID.TID 0000.0001) %MON trcstat_ptracer61_sd         =   1.38161968470369527E-04
(PID.TID 0000.0001) %MON trcstat_ptracer61_del2       =   0.00000000000000000E+00
(PID.TID 0000.0001) %MON trcstat_ptracer62_max        =   8.77840407168773481E-04
(PID.TID 0000.0001) %MON trcstat_ptracer62_min        =   1.14551062707299695E-34
(PID.TID 0000.0001) %MON trcstat_ptracer62_mean       =   2.61753794139122747E-05
(PID.TID 0000.0001) %MON trcstat_ptracer62_sd         =   1.37214534229965527E-04
(PID.TID 0000.0001) %MON trcstat_ptracer62_del2       =   0.00000000000000000E+00
(PID.TID 0000.0001) %MON trcstat_ptracer63_max        =   8.80594336203045932E-04
(PID.TID 0000.0001) %MON trcstat_ptracer63_min        =   1.14551062707299695E-34
(PID.TID 0000.0001) %MON trcstat_ptracer63_mean       =   2.62807895941303399E-05
(PID.TID 0000.0001) %MON trcstat_ptracer63_sd         =   1.37722074602424397E-04
(PID.TID 0000.0001) %MON trcstat_ptracer63_del2       =   0.00000000000000000E+00
(PID.TID 0000.0001) %MON trcstat_ptracer64_max        =   8.77858949177852009E-04
(PID.TID 0000.0001) %MON trcstat_ptracer64_min        =   3.94524937720076233E-37
(PID.TID 0000.0001) %MON trcstat_ptracer64_mean       =   2.61753794139115056E-05
(PID.TID 0000.0001) %MON trcstat_ptracer64_sd         =   1.37232054473922297E-04
(PID.TID 0000.0001) %MON trcstat_ptracer64_del2       =   0.00000000000000000E+00
(PID.TID 0000.0001) %MON trcstat_ptracer65_max        =   8.86640813129504221E-04
(PID.TID 0000.0001) %MON trcstat_ptracer65_min        =   1.14551062707299695E-34
(PID.TID 0000.0001) %MON trcstat_ptracer65_mean       =   2.64128357996122394E-05
(PID.TID 0000.0001) %MON trcstat_ptracer65_sd         =   1.38538004132423740E-04
(PID.TID 0000.0001) %MON trcstat_ptracer65_del2       =   0.00000000000000000E+00
(PID.TID 0000.0001) %MON trcstat_ptracer66_max        =   8.77840407168768819E-04
(PID.TID 0000.0001) %MON trcstat_ptracer66_min        =   1.14551062707299695E-34
(PID.TID 0000.0001) %MON trcstat_ptracer66_mean       =   2.61754142532941695E-05
(PID.TID 0000.0001) %MON trcstat_ptracer66_sd         =   1.37214529678668633E-04
(PID.TID 0000.0001) %MON trcstat_ptracer66_del2       =   0.00000000000000000E+00
(PID.TID 0000.0001) %MON trcstat_ptracer67_max        =   8.79421188575858943E-04
(PID.TID 0000.0001) %MON trcstat_ptracer67_min        =   1.14551062707299695E-34
(PID.TID 0000.0001) %MON trcstat_ptracer67_mean       =   2.62481262401766002E-05
(PID.TID 0000.0001) %MON trcstat_ptracer67_sd         =   1.37544545234065494E-04
(PID.TID 0000.0001) %MON trcstat_ptracer67_del2       =   0.00000000000000000E+00
(PID.TID 0000.0001) %MON trcstat_ptracer68_max        =   8.77840407236801204E-04
(PID.TID 0000.0001) %MON trcstat_ptracer68_min        =   1.14551062707299695E-34
(PID.TID 0000.0001) %MON trcstat_ptracer68_mean       =   2.61753794158129489E-05
(PID.TID 0000.0001) %MON trcstat_ptracer68_sd         =   1.37214534240200856E-04
(PID.TID 0000.0001) %MON trcstat_ptracer68_del2       =   0.00000000000000000E+00
(PID.TID 0000.0001) %MON trcstat_ptracer69_max        =   8.84490136758887889E-04
(PID.TID 0000.0001) %MON trcstat_ptracer69_min        =   3.94524937720076233E-37
(PID.TID 0000.0001) %MON trcstat_ptracer69_mean       =   2.63675223544330303E-05
(PID.TID 0000.0001) %MON trcstat_ptracer69_sd         =   1.38287088809407215E-04
(PID.TID 0000.0001) %MON trcstat_ptracer69_del2       =   0.00000000000000000E+00
(PID.TID 0000.0001) %MON trcstat_ptracer70_max        =   8.88922028572764486E-04
(PID.TID 0000.0001) %MON trcstat_ptracer70_min        =   1.14551062707299695E-34
(PID.TID 0000.0001) %MON trcstat_ptracer70_mean       =   2.64662789507528372E-05
(PID.TID 0000.0001) %MON trcstat_ptracer70_sd         =   1.38853146446033665E-04
(PID.TID 0000.0001) %MON trcstat_ptracer70_del2       =   0.00000000000000000E+00
(PID.TID 0000.0001) %MON trcstat_ptracer71_max        =   8.85946075218522360E-04
(PID.TID 0000.0001) %MON trcstat_ptracer71_min        =   1.14551062707299695E-34
(PID.TID 0000.0001) %MON trcstat_ptracer71_mean       =   2.64008464344435838E-05
(PID.TID 0000.0001) %MON trcstat_ptracer71_sd         =   1.38446110235722266E-04
(PID.TID 0000.0001) %MON trcstat_ptracer71_del2       =   0.00000000000000000E+00
(PID.TID 0000.0001) %MON trcstat_ptracer72_max        =   8.77858949177845612E-04
(PID.TID 0000.0001) %MON trcstat_ptracer72_min        =   3.94524937720076233E-37
(PID.TID 0000.0001) %MON trcstat_ptracer72_mean       =   2.61762207782098973E-05
(PID.TID 0000.0001) %MON trcstat_ptracer72_sd         =   1.37234078392912409E-04
(PID.TID 0000.0001) %MON trcstat_ptracer72_del2       =   0.00000000000000000E+00
(PID.TID 0000.0001) %MON trcstat_ptracer73_max        =   8.87982574387772097E-04
(PID.TID 0000.0001) %MON trcstat_ptracer73_min        =   1.14551062707299695E-34
(PID.TID 0000.0001) %MON trcstat_ptracer73_mean       =   2.64573187032003365E-05
(PID.TID 0000.0001) %MON trcstat_ptracer73_sd         =   1.38753941543167845E-04
(PID.TID 0000.0001) %MON trcstat_ptracer73_del2       =   0.00000000000000000E+00
(PID.TID 0000.0001) %MON trcstat_ptracer74_max        =   8.82041425766420892E-04
(PID.TID 0000.0001) %MON trcstat_ptracer74_min        =   1.14551062707299695E-34
(PID.TID 0000.0001) %MON trcstat_ptracer74_mean       =   2.63185049056462040E-05
(PID.TID 0000.0001) %MON trcstat_ptracer74_sd         =   1.37935281967465950E-04
(PID.TID 0000.0001) %MON trcstat_ptracer74_del2       =   0.00000000000000000E+00
(PID.TID 0000.0001) %MON trcstat_ptracer75_max        =   8.77858949178012145E-04
(PID.TID 0000.0001) %MON trcstat_ptracer75_min        =   3.94524937720076233E-37
(PID.TID 0000.0001) %MON trcstat_ptracer75_mean       =   2.61753794139162049E-05
(PID.TID 0000.0001) %MON trcstat_ptracer75_sd         =   1.37232054473947261E-04
(PID.TID 0000.0001) %MON trcstat_ptracer75_del2       =   0.00000000000000000E+00
(PID.TID 0000.0001) %MON trcstat_ptracer76_max        =   8.84488860575525452E-04
(PID.TID 0000.0001) %MON trcstat_ptracer76_min        =   3.94524937720076233E-37
(PID.TID 0000.0001) %MON trcstat_ptracer76_mean       =   2.63595963625563898E-05
(PID.TID 0000.0001) %MON trcstat_ptracer76_sd         =   1.38268827680784734E-04
(PID.TID 0000.0001) %MON trcstat_ptracer76_del2       =   0.00000000000000000E+00
(PID.TID 0000.0001) %MON trcstat_ptracer77_max        =   8.77858949178062886E-04
(PID.TID 0000.0001) %MON trcstat_ptracer77_min        =   3.94524937720076233E-37
(PID.TID 0000.0001) %MON trcstat_ptracer77_mean       =   2.61753794139176923E-05
(PID.TID 0000.0001) %MON trcstat_ptracer77_sd         =   1.37232054473955176E-04
(PID.TID 0000.0001) %MON trcstat_ptracer77_del2       =   0.00000000000000000E+00
(PID.TID 0000.0001) %MON trcstat_ptracer78_max        =   8.77840407168889924E-04
(PID.TID 0000.0001) %MON trcstat_ptracer78_min        =   1.14551062707299695E-34
(PID.TID 0000.0001) %MON trcstat_ptracer78_mean       =   2.61753794139157306E-05
(PID.TID 0000.0001) %MON trcstat_ptracer78_sd         =   1.37214534229983606E-04
(PID.TID 0000.0001) %MON trcstat_ptracer78_del2       =   0.00000000000000000E+00
(PID.TID 0000.0001) %MON trcstat_ptracer79_max        =   8.77840407236940416E-04
(PID.TID 0000.0001) %MON trcstat_ptracer79_min        =   1.14551062707299695E-34
(PID.TID 0000.0001) %MON trcstat_ptracer79_mean       =   2.61753794158170655E-05
(PID.TID 0000.0001) %MON trcstat_ptracer79_sd         =   1.37214534240222486E-04
(PID.TID 0000.0001) %MON trcstat_ptracer79_del2       =   0.00000000000000000E+00
(PID.TID 0000.0001) %MON trcstat_ptracer80_max        =   8.77858949177826422E-04
(PID.TID 0000.0001) %MON trcstat_ptracer80_min        =   3.94524937720076233E-37
(PID.TID 0000.0001) %MON trcstat_ptracer80_mean       =   2.61767504703811360E-05
(PID.TID 0000.0001) %MON trcstat_ptracer80_sd         =   1.37233607554703628E-04
(PID.TID 0000.0001) %MON trcstat_ptracer80_del2       =   0.00000000000000000E+00
(PID.TID 0000.0001) %MON trcstat_ptracer81_max        =   8.77858949177882800E-04
(PID.TID 0000.0001) %MON trcstat_ptracer81_min        =   3.94524937720076233E-37
(PID.TID 0000.0001) %MON trcstat_ptracer81_mean       =   2.61753794139126203E-05
(PID.TID 0000.0001) %MON trcstat_ptracer81_sd         =   1.37232054473930808E-04
(PID.TID 0000.0001) %MON trcstat_ptracer81_del2       =   0.00000000000000000E+00
(PID.TID 0000.0001) %MON trcstat_ptracer82_max        =   8.77858949177979077E-04
(PID.TID 0000.0001) %MON trcstat_ptracer82_min        =   3.94524937720076233E-37
(PID.TID 0000.0001) %MON trcstat_ptracer82_mean       =   2.61753794139152359E-05
(PID.TID 0000.0001) %MON trcstat_ptracer82_sd         =   1.37232054473942138E-04
(PID.TID 0000.0001) %MON trcstat_ptracer82_del2       =   0.00000000000000000E+00
(PID.TID 0000.0001) %MON trcstat_ptracer83_max        =   8.77840407168761880E-04
(PID.TID 0000.0001) %MON trcstat_ptracer83_min        =   1.14551062707299695E-34
(PID.TID 0000.0001) %MON trcstat_ptracer83_mean       =   2.61753794139119223E-05
(PID.TID 0000.0001) %MON trcstat_ptracer83_sd         =   1.37214534229963684E-04
(PID.TID 0000.0001) %MON trcstat_ptracer83_del2       =   0.00000000000000000E+00
(PID.TID 0000.0001) %MON trcstat_ptracer84_max        =   8.77840407236875580E-04
(PID.TID 0000.0001) %MON trcstat_ptracer84_min        =   1.14551062707299695E-34
(PID.TID 0000.0001) %MON trcstat_ptracer84_mean       =   2.61936309721512821E-05
(PID.TID 0000.0001) %MON trcstat_ptracer84_sd         =   1.37273536260444699E-04
(PID.TID 0000.0001) %MON trcstat_ptracer84_del2       =   0.00000000000000000E+00
(PID.TID 0000.0001) %MON trcstat_ptracer85_max        =   8.77840407168828558E-04
(PID.TID 0000.0001) %MON trcstat_ptracer85_min        =   1.14551062707299695E-34
(PID.TID 0000.0001) %MON trcstat_ptracer85_mean       =   2.61754321401279005E-05
(PID.TID 0000.0001) %MON trcstat_ptracer85_sd         =   1.37214527464994701E-04
(PID.TID 0000.0001) %MON trcstat_ptracer85_del2       =   0.00000000000000000E+00
(PID.TID 0000.0001) %MON trcstat_ptracer86_max        =   8.77840407168745183E-04
(PID.TID 0000.0001) %MON trcstat_ptracer86_min        =   1.14551062707299695E-34
(PID.TID 0000.0001) %MON trcstat_ptracer86_mean       =   2.61753794139114243E-05
(PID.TID 0000.0001) %MON trcstat_ptracer86_sd         =   1.37214534229961109E-04
(PID.TID 0000.0001) %MON trcstat_ptracer86_del2       =   0.00000000000000000E+00
(PID.TID 0000.0001) %MON trcstat_ptracer87_max        =   8.82889931616076583E-04
(PID.TID 0000.0001) %MON trcstat_ptracer87_min        =   1.14551062707299695E-34
(PID.TID 0000.0001) %MON trcstat_ptracer87_mean       =   2.63267890606294122E-05
(PID.TID 0000.0001) %MON trcstat_ptracer87_sd         =   1.38011141764069915E-04
(PID.TID 0000.0001) %MON trcstat_ptracer87_del2       =   0.00000000000000000E+00
(PID.TID 0000.0001) %MON trcstat_ptracer88_max        =   8.85358983600142892E-04
(PID.TID 0000.0001) %MON trcstat_ptracer88_min        =   3.94524937720076233E-37
(PID.TID 0000.0001) %MON trcstat_ptracer88_mean       =   2.63742179222012146E-05
(PID.TID 0000.0001) %MON trcstat_ptracer88_sd         =   1.38327801803019669E-04
(PID.TID 0000.0001) %MON trcstat_ptracer88_del2       =   0.00000000000000000E+00
(PID.TID 0000.0001) %MON trcstat_ptracer89_max        =   8.77858949177880198E-04
(PID.TID 0000.0001) %MON trcstat_ptracer89_min        =   3.94524937720076233E-37
(PID.TID 0000.0001) %MON trcstat_ptracer89_mean       =   2.61753794139125458E-05
(PID.TID 0000.0001) %MON trcstat_ptracer89_sd         =   1.37232054473930375E-04
(PID.TID 0000.0001) %MON trcstat_ptracer89_del2       =   0.00000000000000000E+00
(PID.TID 0000.0001) %MON trcstat_ptracer90_max        =   8.77840407168761555E-04
(PID.TID 0000.0001) %MON trcstat_ptracer90_min        =   1.14551062707299695E-34
(PID.TID 0000.0001) %MON trcstat_ptracer90_mean       =   2.61755073170056003E-05
(PID.TID 0000.0001) %MON trcstat_ptracer90_sd         =   1.37214524325104823E-04
(PID.TID 0000.0001) %MON trcstat_ptracer90_del2       =   0.00000000000000000E+00
(PID.TID 0000.0001) %MON trcstat_ptracer91_max        =   8.77858949177836938E-04
(PID.TID 0000.0001) %MON trcstat_ptracer91_min        =   3.94524937720076233E-37
(PID.TID 0000.0001) %MON trcstat_ptracer91_mean       =   2.61754453388279240E-05
(PID.TID 0000.0001) %MON trcstat_ptracer91_sd         =   1.37232047902072327E-04
(PID.TID 0000.0001) %MON trcstat_ptracer91_del2       =   0.00000000000000000E+00
(PID.TID 0000.0001) %MON trcstat_ptracer92_max        =   8.84168400969212540E-04
(PID.TID 0000.0001) %MON trcstat_ptracer92_min        =   3.94524937720076233E-37
(PID.TID 0000.0001) %MON trcstat_ptracer92_mean       =   2.63646314690960752E-05
(PID.TID 0000.0001) %MON trcstat_ptracer92_sd         =   1.38264171248561206E-04
(PID.TID 0000.0001) %MON trcstat_ptracer92_del2       =   0.00000000000000000E+00
(PID.TID 0000.0001) %MON trcstat_ptracer93_max        =   8.77858949177829349E-04
(PID.TID 0000.0001) %MON trcstat_ptracer93_min        =   3.94524937720076233E-37
(PID.TID 0000.0001) %MON trcstat_ptracer93_mean       =   2.61774723739648816E-05
(PID.TID 0000.0001) %MON trcstat_ptracer93_sd         =   1.37234981620252416E-04
(PID.TID 0000.0001) %MON trcstat_ptracer93_del2       =   0.00000000000000000E+00
(PID.TID 0000.0001) %MON trcstat_ptracer94_max        =   8.84186076400522974E-04
(PID.TID 0000.0001) %MON trcstat_ptracer94_min        =   3.94524937720076233E-37
(PID.TID 0000.0001) %MON trcstat_ptracer94_mean       =   2.63539249037087121E-05
(PID.TID 0000.0001) %MON trcstat_ptracer94_sd         =   1.38236314503236465E-04
(PID.TID 0000.0001) %MON trcstat_ptracer94_del2       =   0.00000000000000000E+00
(PID.TID 0000.0001) %MON trcstat_ptracer95_max        =   8.77858949178022228E-04
(PID.TID 0000.0001) %MON trcstat_ptracer95_min        =   3.94524937720076233E-37
(PID.TID 0000.0001) %MON trcstat_ptracer95_mean       =   2.61753794139165031E-05
(PID.TID 0000.0001) %MON trcstat_ptracer95_sd         =   1.37232054473948833E-04
(PID.TID 0000.0001) %MON trcstat_ptracer95_del2       =   0.00000000000000000E+00
(PID.TID 0000.0001) %MON trcstat_ptracer96_max        =   1.24159825531982135E-07
(PID.TID 0000.0001) %MON trcstat_ptracer96_min        =   2.76979330747570850E-35
(PID.TID 0000.0001) %MON trcstat_ptracer96_mean       =   1.64196806815470960E-08
(PID.TID 0000.0001) %MON trcstat_ptracer96_sd         =   3.00326404712929826E-08
(PID.TID 0000.0001) %MON trcstat_ptracer96_del2       =   0.00000000000000000E+00
(PID.TID 0000.0001) %MON trcstat_ptracer97_max        =   1.24159659631864346E-07
(PID.TID 0000.0001) %MON trcstat_ptracer97_min        =   2.76979330747570850E-35
(PID.TID 0000.0001) %MON trcstat_ptracer97_mean       =   1.64196759602380567E-08
(PID.TID 0000.0001) %MON trcstat_ptracer97_sd         =   3.00326246452836762E-08
(PID.TID 0000.0001) %MON trcstat_ptracer97_del2       =   0.00000000000000000E+00
(PID.TID 0000.0001) %MON trcstat_ptracer98_max        =   3.31873572709770882E-04
(PID.TID 0000.0001) %MON trcstat_ptracer98_min        =   6.58266794076761721E-35
(PID.TID 0000.0001) %MON trcstat_ptracer98_mean       =   8.28064876409517033E-06
(PID.TID 0000.0001) %MON trcstat_ptracer98_sd         =   4.33854683081334887E-05
(PID.TID 0000.0001) %MON trcstat_ptracer98_del2       =   0.00000000000000000E+00
(PID.TID 0000.0001) %MON trcstat_ptracer99_max        =   3.59829574083188255E-04
(PID.TID 0000.0001) %MON trcstat_ptracer99_min        =   6.84472669330076477E-35
(PID.TID 0000.0001) %MON trcstat_ptracer99_mean       =   9.05317548613103282E-06
(PID.TID 0000.0001) %MON trcstat_ptracer99_sd         =   4.73708177418486503E-05
(PID.TID 0000.0001) %MON trcstat_ptracer99_del2       =   0.00000000000000000E+00
(PID.TID 0000.0001) %MON trcstat_ptracer0a_max        =   1.80343408790926502E-04
(PID.TID 0000.0001) %MON trcstat_ptracer0a_min        =   1.64409213447521095E-37
(PID.TID 0000.0001) %MON trcstat_ptracer0a_mean       =   4.20529826884840965E-06
(PID.TID 0000.0001) %MON trcstat_ptracer0a_sd         =   2.22239070920628878E-05
(PID.TID 0000.0001) %MON trcstat_ptracer0a_del2       =   0.00000000000000000E+00
(PID.TID 0000.0001) %MON trcstat_ptracer0b_max        =   1.74229684100377666E-04
(PID.TID 0000.0001) %MON trcstat_ptracer0b_min        =   1.90429691463664039E-37
(PID.TID 0000.0001) %MON trcstat_ptracer0b_mean       =   3.98996714201784566E-06
(PID.TID 0000.0001) %MON trcstat_ptracer0b_sd         =   2.11010110711693991E-05
(PID.TID 0000.0001) %MON trcstat_ptracer0b_del2       =   0.00000000000000000E+00
(PID.TID 0000.0001) %MON trcstat_ptracer0c_max        =   4.46582249248158735E-04
(PID.TID 0000.0001) %MON trcstat_ptracer0c_min        =   8.23132005505926093E-35
(PID.TID 0000.0001) %MON trcstat_ptracer0c_mean       =   1.12512382436322888E-05
(PID.TID 0000.0001) %MON trcstat_ptracer0c_sd         =   5.87882991468406880E-05
(PID.TID 0000.0001) %MON trcstat_ptracer0c_del2       =   0.00000000000000000E+00
(PID.TID 0000.0001) %MON trcstat_ptracer0d_max        =   1.68142427196918523E-04
(PID.TID 0000.0001) %MON trcstat_ptracer0d_min        =   1.34317563557180497E-37
(PID.TID 0000.0001) %MON trcstat_ptracer0d_mean       =   4.06463607795300896E-06
(PID.TID 0000.0001) %MON trcstat_ptracer0d_sd         =   2.14198191278283609E-05
(PID.TID 0000.0001) %MON trcstat_ptracer0d_del2       =   0.00000000000000000E+00
(PID.TID 0000.0001) %MON trcstat_ptracer0e_max        =   1.96285004213348131E-04
(PID.TID 0000.0001) %MON trcstat_ptracer0e_min        =   1.85512441134278974E-37
(PID.TID 0000.0001) %MON trcstat_ptracer0e_mean       =   4.54100374816906932E-06
(PID.TID 0000.0001) %MON trcstat_ptracer0e_sd         =   2.40162143711390365E-05
(PID.TID 0000.0001) %MON trcstat_ptracer0e_del2       =   0.00000000000000000E+00
(PID.TID 0000.0001) %MON trcstat_ptracer0f_max        =   1.22713317130351753E-04
(PID.TID 0000.0001) %MON trcstat_ptracer0f_min        =   8.13965308831988397E-38
(PID.TID 0000.0001) %MON trcstat_ptracer0f_mean       =   3.08538139784766472E-06
(PID.TID 0000.0001) %MON trcstat_ptracer0f_sd         =   1.61468153548564644E-05
(PID.TID 0000.0001) %MON trcstat_ptracer0f_del2       =   0.00000000000000000E+00
(PID.TID 0000.0001) %MON trcstat_ptracer0g_max        =   1.64732728038286159E-04
(PID.TID 0000.0001) %MON trcstat_ptracer0g_min        =   1.90230140750165248E-37
(PID.TID 0000.0001) %MON trcstat_ptracer0g_mean       =   3.77525480813149938E-06
(PID.TID 0000.0001) %MON trcstat_ptracer0g_sd         =   1.99519063181708378E-05
(PID.TID 0000.0001) %MON trcstat_ptracer0g_del2       =   0.00000000000000000E+00
(PID.TID 0000.0001) %MON trcstat_ptracer0h_max        =   1.35453295114814915E-04
(PID.TID 0000.0001) %MON trcstat_ptracer0h_min        =   1.25556210181502542E-37
(PID.TID 0000.0001) %MON trcstat_ptracer0h_mean       =   3.14349503475475468E-06
(PID.TID 0000.0001) %MON trcstat_ptracer0h_sd         =   1.66218440515957052E-05
(PID.TID 0000.0001) %MON trcstat_ptracer0h_del2       =   0.00000000000000000E+00
(PID.TID 0000.0001) %MON trcstat_ptracer0i_max        =   4.03179100653742431E-04
(PID.TID 0000.0001) %MON trcstat_ptracer0i_min        =   7.97003366306641736E-35
(PID.TID 0000.0001) %MON trcstat_ptracer0i_mean       =   1.00730240668981139E-05
(PID.TID 0000.0001) %MON trcstat_ptracer0i_sd         =   5.27718909861018943E-05
(PID.TID 0000.0001) %MON trcstat_ptracer0i_del2       =   0.00000000000000000E+00
(PID.TID 0000.0001) %MON trcstat_ptracer0j_max        =   1.22868496429338165E-04
(PID.TID 0000.0001) %MON trcstat_ptracer0j_min        =   1.02756683072523430E-37
(PID.TID 0000.0001) %MON trcstat_ptracer0j_mean       =   2.91364646305769356E-06
(PID.TID 0000.0001) %MON trcstat_ptracer0j_sd         =   1.53814958192751978E-05
(PID.TID 0000.0001) %MON trcstat_ptracer0j_del2       =   0.00000000000000000E+00
(PID.TID 0000.0001) %MON trcstat_ptracer0k_max        =   3.75357760876673778E-04
(PID.TID 0000.0001) %MON trcstat_ptracer0k_min        =   7.29605501659095241E-35
(PID.TID 0000.0001) %MON trcstat_ptracer0k_mean       =   9.40425794578402738E-06
(PID.TID 0000.0001) %MON trcstat_ptracer0k_sd         =   4.92516760134616870E-05
(PID.TID 0000.0001) %MON trcstat_ptracer0k_del2       =   0.00000000000000000E+00
(PID.TID 0000.0001) %MON trcstat_ptracer0l_max        =   3.78713386588625997E-04
(PID.TID 0000.0001) %MON trcstat_ptracer0l_min        =   9.13402395395301040E-35
(PID.TID 0000.0001) %MON trcstat_ptracer0l_mean       =   9.03153791233733017E-06
(PID.TID 0000.0001) %MON trcstat_ptracer0l_sd         =   4.76455974601367997E-05
(PID.TID 0000.0001) %MON trcstat_ptracer0l_del2       =   0.00000000000000000E+00
(PID.TID 0000.0001) %MON trcstat_ptracer0m_max        =   1.78094269143236702E-04
(PID.TID 0000.0001) %MON trcstat_ptracer0m_min        =   1.78710407093676768E-37
(PID.TID 0000.0001) %MON trcstat_ptracer0m_mean       =   4.10173047914402034E-06
(PID.TID 0000.0001) %MON trcstat_ptracer0m_sd         =   2.16900425930749553E-05
(PID.TID 0000.0001) %MON trcstat_ptracer0m_del2       =   0.00000000000000000E+00
(PID.TID 0000.0001) %MON trcstat_ptracer0n_max        =   1.06560486621006250E-04
(PID.TID 0000.0001) %MON trcstat_ptracer0n_min        =   8.83774622568101674E-38
(PID.TID 0000.0001) %MON trcstat_ptracer0n_mean       =   2.54237359696437786E-06
(PID.TID 0000.0001) %MON trcstat_ptracer0n_sd         =   1.34124226817941926E-05
(PID.TID 0000.0001) %MON trcstat_ptracer0n_del2       =   0.00000000000000000E+00
(PID.TID 0000.0001) %MON trcstat_ptracer0o_max        =   1.70960325494707145E-04
(PID.TID 0000.0001) %MON trcstat_ptracer0o_min        =   1.15454813402364619E-37
(PID.TID 0000.0001) %MON trcstat_ptracer0o_mean       =   4.28182385129552687E-06
(PID.TID 0000.0001) %MON trcstat_ptracer0o_sd         =   2.24248239427223156E-05
(PID.TID 0000.0001) %MON trcstat_ptracer0o_del2       =   0.00000000000000000E+00
(PID.TID 0000.0001) %MON trcstat_ptracer0p_max        =   1.96408150602262859E-04
(PID.TID 0000.0001) %MON trcstat_ptracer0p_min        =   1.57037081008789967E-37
(PID.TID 0000.0001) %MON trcstat_ptracer0p_mean       =   4.74628903622763187E-06
(PID.TID 0000.0001) %MON trcstat_ptracer0p_sd         =   2.50127196014726449E-05
(PID.TID 0000.0001) %MON trcstat_ptracer0p_del2       =   0.00000000000000000E+00
(PID.TID 0000.0001) %MON trcstat_ptracer0q_max        =   1.47684941027493102E-04
(PID.TID 0000.0001) %MON trcstat_ptracer0q_min        =   1.02183033949955014E-37
(PID.TID 0000.0001) %MON trcstat_ptracer0q_mean       =   3.67300718227113719E-06
(PID.TID 0000.0001) %MON trcstat_ptracer0q_sd         =   1.92577208939629788E-05
(PID.TID 0000.0001) %MON trcstat_ptracer0q_del2       =   0.00000000000000000E+00
(PID.TID 0000.0001) %MON trcstat_ptracer0r_max        =   1.32550396021293879E-04
(PID.TID 0000.0001) %MON trcstat_ptracer0r_min        =   1.12392313573312494E-37
(PID.TID 0000.0001) %MON trcstat_ptracer0r_mean       =   3.13184518117892101E-06
(PID.TID 0000.0001) %MON trcstat_ptracer0r_sd         =   1.65385341571049680E-05
(PID.TID 0000.0001) %MON trcstat_ptracer0r_del2       =   0.00000000000000000E+00
(PID.TID 0000.0001) %MON trcstat_ptracer0s_max        =   1.22637237721684553E-04
(PID.TID 0000.0001) %MON trcstat_ptracer0s_min        =   1.09858457434558434E-37
(PID.TID 0000.0001) %MON trcstat_ptracer0s_mean       =   2.86919792752535926E-06
(PID.TID 0000.0001) %MON trcstat_ptracer0s_sd         =   1.51595183145236811E-05
(PID.TID 0000.0001) %MON trcstat_ptracer0s_del2       =   0.00000000000000000E+00
(PID.TID 0000.0001) %MON trcstat_ptracer0t_max        =   3.30348013270069995E-04
(PID.TID 0000.0001) %MON trcstat_ptracer0t_min        =   7.16870401813674139E-35
(PID.TID 0000.0001) %MON trcstat_ptracer0t_mean       =   8.09198077056153382E-06
(PID.TID 0000.0001) %MON trcstat_ptracer0t_sd         =   4.25508210102157154E-05
(PID.TID 0000.0001) %MON trcstat_ptracer0t_del2       =   0.00000000000000000E+00
(PID.TID 0000.0001) %MON trcstat_ptracer0u_max        =   1.22164061203677588E-04
(PID.TID 0000.0001) %MON trcstat_ptracer0u_min        =   1.10667519587464438E-37
(PID.TID 0000.0001) %MON trcstat_ptracer0u_mean       =   2.84729305771350196E-06
(PID.TID 0000.0001) %MON trcstat_ptracer0u_sd         =   1.50481038937082987E-05
(PID.TID 0000.0001) %MON trcstat_ptracer0u_del2       =   0.00000000000000000E+00
(PID.TID 0000.0001) %MON trcstat_ptracer0v_max        =   4.29942627261484451E-04
(PID.TID 0000.0001) %MON trcstat_ptracer0v_min        =   8.06393174192290065E-35
(PID.TID 0000.0001) %MON trcstat_ptracer0v_mean       =   1.08211929473918863E-05
(PID.TID 0000.0001) %MON trcstat_ptracer0v_sd         =   5.65662759767353407E-05
(PID.TID 0000.0001) %MON trcstat_ptracer0v_del2       =   0.00000000000000000E+00
(PID.TID 0000.0001) %MON trcstat_ptracer0w_max        =   3.44488264066974774E-04
(PID.TID 0000.0001) %MON trcstat_ptracer0w_min        =   7.36786392764793638E-35
(PID.TID 0000.0001) %MON trcstat_ptracer0w_mean       =   8.45682789467217468E-06
(PID.TID 0000.0001) %MON trcstat_ptracer0w_sd         =   4.44459985982671385E-05
(PID.TID 0000.0001) %MON trcstat_ptracer0w_del2       =   0.00000000000000000E+00
(PID.TID 0000.0001) %MON trcstat_ptracer0x_max        =   3.38186405474827519E-04
(PID.TID 0000.0001) %MON trcstat_ptracer0x_min        =   7.11924545130224080E-35
(PID.TID 0000.0001) %MON trcstat_ptracer0x_mean       =   8.32721679658545141E-06
(PID.TID 0000.0001) %MON trcstat_ptracer0x_sd         =   4.37308359539795310E-05
(PID.TID 0000.0001) %MON trcstat_ptracer0x_del2       =   0.00000000000000000E+00
(PID.TID 0000.0001) %MON trcstat_ptracer0y_max        =   1.31745434047955896E-04
(PID.TID 0000.0001) %MON trcstat_ptracer0y_min        =   9.98215950721080369E-38
(PID.TID 0000.0001) %MON trcstat_ptracer0y_mean       =   3.21734874565192885E-06
(PID.TID 0000.0001) %MON trcstat_ptracer0y_sd         =   1.69348678008229386E-05
(PID.TID 0000.0001) %MON trcstat_ptracer0y_del2       =   0.00000000000000000E+00
(PID.TID 0000.0001) %MON trcstat_ptracer0z_max        =   3.41874078508916802E-04
(PID.TID 0000.0001) %MON trcstat_ptracer0z_min        =   7.77764715789310222E-35
(PID.TID 0000.0001) %MON trcstat_ptracer0z_mean       =   8.32998001969718892E-06
(PID.TID 0000.0001) %MON trcstat_ptracer0z_sd         =   4.38656068937423745E-05
(PID.TID 0000.0001) %MON trcstat_ptracer0z_del2       =   0.00000000000000000E+00
(PID.TID 0000.0001) %MON trcstat_ptracer0A_max        =   1.29955401973503540E-04
(PID.TID 0000.0001) %MON trcstat_ptracer0A_min        =   8.87292798700220642E-38
(PID.TID 0000.0001) %MON trcstat_ptracer0A_mean       =   3.24025741386023408E-06
(PID.TID 0000.0001) %MON trcstat_ptracer0A_sd         =   1.69814187327444305E-05
(PID.TID 0000.0001) %MON trcstat_ptracer0A_del2       =   0.00000000000000000E+00
(PID.TID 0000.0001) %MON trcstat_ptracer0B_max        =   3.62266437361097240E-04
(PID.TID 0000.0001) %MON trcstat_ptracer0B_min        =   7.14365341898859616E-35
(PID.TID 0000.0001) %MON trcstat_ptracer0B_mean       =   9.05754420982919513E-06
(PID.TID 0000.0001) %MON trcstat_ptracer0B_sd         =   4.74464116034412374E-05
(PID.TID 0000.0001) %MON trcstat_ptracer0B_del2       =   0.00000000000000000E+00
(PID.TID 0000.0001) %MON trcstat_ptracer0C_max        =   2.03117627844397403E-04
(PID.TID 0000.0001) %MON trcstat_ptracer0C_min        =   1.54434607120242912E-37
(PID.TID 0000.0001) %MON trcstat_ptracer0C_mean       =   4.96576361867676653E-06
(PID.TID 0000.0001) %MON trcstat_ptracer0C_sd         =   2.61235664704367274E-05
(PID.TID 0000.0001) %MON trcstat_ptracer0C_del2       =   0.00000000000000000E+00
(PID.TID 0000.0001) %MON trcstat_ptracer0D_max        =   1.55644551037586358E-04
(PID.TID 0000.0001) %MON trcstat_ptracer0D_min        =   1.45984859403499707E-37
(PID.TID 0000.0001) %MON trcstat_ptracer0D_mean       =   3.60365988889516018E-06
(PID.TID 0000.0001) %MON trcstat_ptracer0D_sd         =   1.90591731252213579E-05
(PID.TID 0000.0001) %MON trcstat_ptracer0D_del2       =   0.00000000000000000E+00
(PID.TID 0000.0001) %MON trcstat_ptracer0E_max        =   3.64477901838986614E-04
(PID.TID 0000.0001) %MON trcstat_ptracer0E_min        =   7.86401923192971997E-35
(PID.TID 0000.0001) %MON trcstat_ptracer0E_mean       =   8.93538618988811639E-06
(PID.TID 0000.0001) %MON trcstat_ptracer0E_sd         =   4.69763947793036540E-05
(PID.TID 0000.0001) %MON trcstat_ptracer0E_del2       =   0.00000000000000000E+00
(PID.TID 0000.0001) %MON trcstat_ptracer0F_max        =   1.90361026883133878E-04
(PID.TID 0000.0001) %MON trcstat_ptracer0F_min        =   1.52288490090280112E-37
(PID.TID 0000.0001) %MON trcstat_ptracer0F_mean       =   4.59915319243618171E-06
(PID.TID 0000.0001) %MON trcstat_ptracer0F_sd         =   2.42377659665280198E-05
(PID.TID 0000.0001) %MON trcstat_ptracer0F_del2       =   0.00000000000000000E+00
(PID.TID 0000.0001) %MON trcstat_ptracer0G_max        =   4.21053759983088514E-04
(PID.TID 0000.0001) %MON trcstat_ptracer0G_min        =   8.34227106424332453E-35
(PID.TID 0000.0001) %MON trcstat_ptracer0G_mean       =   1.04999978259724467E-05
(PID.TID 0000.0001) %MON trcstat_ptracer0G_sd         =   5.50246004674803381E-05
(PID.TID 0000.0001) %MON trcstat_ptracer0G_del2       =   0.00000000000000000E+00
(PID.TID 0000.0001) %MON trcstat_ptracer0H_max        =   3.17337407662968542E-04
(PID.TID 0000.0001) %MON trcstat_ptracer0H_min        =   6.73289249542322398E-35
(PID.TID 0000.0001) %MON trcstat_ptracer0H_mean       =   7.80041804272523798E-06
(PID.TID 0000.0001) %MON trcstat_ptracer0H_sd         =   4.09854374985340586E-05
(PID.TID 0000.0001) %MON trcstat_ptracer0H_del2       =   0.00000000000000000E+00
(PID.TID 0000.0001) %MON trcstat_ptracer0I_max        =   3.80819269604922169E-04
(PID.TID 0000.0001) %MON trcstat_ptracer0I_min        =   6.96763081950067998E-35
(PID.TID 0000.0001) %MON trcstat_ptracer0I_mean       =   9.59770252524741936E-06
(PID.TID 0000.0001) %MON trcstat_ptracer0I_sd         =   5.01378462593552260E-05
(PID.TID 0000.0001) %MON trcstat_ptracer0I_del2       =   0.00000000000000000E+00
(PID.TID 0000.0001) %MON trcstat_ptracer0J_max        =   1.72721076648156574E-04
(PID.TID 0000.0001) %MON trcstat_ptracer0J_min        =   1.28587256509894912E-37
(PID.TID 0000.0001) %MON trcstat_ptracer0J_mean       =   4.22539016098061609E-06
(PID.TID 0000.0001) %MON trcstat_ptracer0J_sd         =   2.22288010377588949E-05
(PID.TID 0000.0001) %MON trcstat_ptracer0J_del2       =   0.00000000000000000E+00
(PID.TID 0000.0001) %MON trcstat_ptracer0K_max        =   1.39368499936055862E-04
(PID.TID 0000.0001) %MON trcstat_ptracer0K_min        =   1.18268880878134386E-37
(PID.TID 0000.0001) %MON trcstat_ptracer0K_mean       =   3.30268536414531401E-06
(PID.TID 0000.0001) %MON trcstat_ptracer0K_sd         =   1.74329898817072884E-05
(PID.TID 0000.0001) %MON trcstat_ptracer0K_del2       =   0.00000000000000000E+00
(PID.TID 0000.0001) %MON trcstat_ptracer0L_max        =   3.20165508931009933E-04
(PID.TID 0000.0001) %MON trcstat_ptracer0L_min        =   6.20998035391426981E-35
(PID.TID 0000.0001) %MON trcstat_ptracer0L_mean       =   8.03427979783184033E-06
(PID.TID 0000.0001) %MON trcstat_ptracer0L_sd         =   4.20635060938774792E-05
(PID.TID 0000.0001) %MON trcstat_ptracer0L_del2       =   0.00000000000000000E+00
(PID.TID 0000.0001) %MON trcstat_ptracer0M_max        =   3.61226630683307310E-04
(PID.TID 0000.0001) %MON trcstat_ptracer0M_min        =   6.40371827524987019E-35
(PID.TID 0000.0001) %MON trcstat_ptracer0M_mean       =   9.13283675581555261E-06
(PID.TID 0000.0001) %MON trcstat_ptracer0M_sd         =   4.76301230506315565E-05
(PID.TID 0000.0001) %MON trcstat_ptracer0M_del2       =   0.00000000000000000E+00
(PID.TID 0000.0001) %MON trcstat_ptracer0N_max        =   1.53536662597452859E-04
(PID.TID 0000.0001) %MON trcstat_ptracer0N_min        =   1.63119767867323622E-37
(PID.TID 0000.0001) %MON trcstat_ptracer0N_mean       =   3.52345472425275664E-06
(PID.TID 0000.0001) %MON trcstat_ptracer0N_sd         =   1.86311510786561585E-05
(PID.TID 0000.0001) %MON trcstat_ptracer0N_del2       =   0.00000000000000000E+00
(PID.TID 0000.0001) %MON trcstat_ptracer0O_max        =   1.48796598270247202E-04
(PID.TID 0000.0001) %MON trcstat_ptracer0O_min        =   1.21479889756867722E-37
(PID.TID 0000.0001) %MON trcstat_ptracer0O_mean       =   3.55944476032233322E-06
(PID.TID 0000.0001) %MON trcstat_ptracer0O_sd         =   1.87747607715341418E-05
(PID.TID 0000.0001) %MON trcstat_ptracer0O_del2       =   0.00000000000000000E+00
(PID.TID 0000.0001) %MON trcstat_ptracer0P_max        =   2.35763287444816781E-04
(PID.TID 0000.0001) %MON trcstat_ptracer0P_min        =   1.82559836226628773E-37
(PID.TID 0000.0001) %MON trcstat_ptracer0P_mean       =   5.74641591213011936E-06
(PID.TID 0000.0001) %MON trcstat_ptracer0P_sd         =   3.02637250709183702E-05
(PID.TID 0000.0001) %MON trcstat_ptracer0P_del2       =   0.00000000000000000E+00
(PID.TID 0000.0001) %MON trcstat_ptracer0Q_max        =   3.78606250485102522E-04
(PID.TID 0000.0001) %MON trcstat_ptracer0Q_min        =   9.11536014930611020E-35
(PID.TID 0000.0001) %MON trcstat_ptracer0Q_mean       =   9.03396199743598176E-06
(PID.TID 0000.0001) %MON trcstat_ptracer0Q_sd         =   4.76562391703532127E-05
(PID.TID 0000.0001) %MON trcstat_ptracer0Q_del2       =   0.00000000000000000E+00
(PID.TID 0000.0001) %MON trcstat_ptracer0R_max        =   3.41407242732680804E-04
(PID.TID 0000.0001) %MON trcstat_ptracer0R_min        =   7.86306645346565342E-35
(PID.TID 0000.0001) %MON trcstat_ptracer0R_mean       =   8.26623588743273388E-06
(PID.TID 0000.0001) %MON trcstat_ptracer0R_sd         =   4.35434652865837366E-05
(PID.TID 0000.0001) %MON trcstat_ptracer0R_del2       =   0.00000000000000000E+00
(PID.TID 0000.0001) %MON trcstat_ptracer0S_max        =   1.03019421959172082E-04
(PID.TID 0000.0001) %MON trcstat_ptracer0S_min        =   8.43430107911909007E-38
(PID.TID 0000.0001) %MON trcstat_ptracer0S_mean       =   2.46828411692755415E-06
(PID.TID 0000.0001) %MON trcstat_ptracer0S_sd         =   1.30170438179888416E-05
(PID.TID 0000.0001) %MON trcstat_ptracer0S_del2       =   0.00000000000000000E+00
(PID.TID 0000.0001) %MON trcstat_ptracer0T_max        =   3.65264772120693030E-04
(PID.TID 0000.0001) %MON trcstat_ptracer0T_min        =   7.01123353600958444E-35
(PID.TID 0000.0001) %MON trcstat_ptracer0T_mean       =   9.19031657714444814E-06
(PID.TID 0000.0001) %MON trcstat_ptracer0T_sd         =   4.80914363567404383E-05
(PID.TID 0000.0001) %MON trcstat_ptracer0T_del2       =   0.00000000000000000E+00
(PID.TID 0000.0001) %MON trcstat_ptracer0U_max        =   3.57060497995943717E-04
(PID.TID 0000.0001) %MON trcstat_ptracer0U_min        =   7.59794317362742971E-35
(PID.TID 0000.0001) %MON trcstat_ptracer0U_mean       =   8.77260897593987086E-06
(PID.TID 0000.0001) %MON trcstat_ptracer0U_sd         =   4.60979201630551562E-05
(PID.TID 0000.0001) %MON trcstat_ptracer0U_del2       =   0.00000000000000000E+00
(PID.TID 0000.0001) %MON trcstat_ptracer0V_max        =   3.61868644957914060E-04
(PID.TID 0000.0001) %MON trcstat_ptracer0V_min        =   8.40215606880544618E-35
(PID.TID 0000.0001) %MON trcstat_ptracer0V_mean       =   8.73937813241560646E-06
(PID.TID 0000.0001) %MON trcstat_ptracer0V_sd         =   4.60440200734499975E-05
(PID.TID 0000.0001) %MON trcstat_ptracer0V_del2       =   0.00000000000000000E+00
(PID.TID 0000.0001) %MON trcstat_ptracer0W_max        =   4.73383302398209518E-04
(PID.TID 0000.0001) %MON trcstat_ptracer0W_min        =   8.97077322520164129E-35
(PID.TID 0000.0001) %MON trcstat_ptracer0W_mean       =   1.19102978295481139E-05
(PID.TID 0000.0001) %MON trcstat_ptracer0W_sd         =   6.22844616367029737E-05
(PID.TID 0000.0001) %MON trcstat_ptracer0W_del2       =   0.00000000000000000E+00
(PID.TID 0000.0001) %MON trcstat_ptracer0X_max        =   1.80882118384766393E-04
(PID.TID 0000.0001) %MON trcstat_ptracer0X_min        =   1.29520298124479455E-37
(PID.TID 0000.0001) %MON trcstat_ptracer0X_mean       =   4.45516900040949418E-06
(PID.TID 0000.0001) %MON trcstat_ptracer0X_sd         =   2.34043371879300380E-05
(PID.TID 0000.0001) %MON trcstat_ptracer0X_del2       =   0.00000000000000000E+00
(PID.TID 0000.0001) %MON trcstat_ptracer0Y_max        =   3.54221354084214852E-04
(PID.TID 0000.0001) %MON trcstat_ptracer0Y_min        =   6.74577089864808943E-35
(PID.TID 0000.0001) %MON trcstat_ptracer0Y_mean       =   8.91127386810859237E-06
(PID.TID 0000.0001) %MON trcstat_ptracer0Y_sd         =   4.66242264938723086E-05
(PID.TID 0000.0001) %MON trcstat_ptracer0Y_del2       =   0.00000000000000000E+00
(PID.TID 0000.0001) %MON trcstat_ptracer0Z_max        =   3.66044410031373107E-04
(PID.TID 0000.0001) %MON trcstat_ptracer0Z_min        =   7.74616938499410868E-35
(PID.TID 0000.0001) %MON trcstat_ptracer0Z_mean       =   8.99730544266872856E-06
(PID.TID 0000.0001) %MON trcstat_ptracer0Z_sd         =   4.72729486880755974E-05
(PID.TID 0000.0001) %MON trcstat_ptracer0Z_del2       =   0.00000000000000000E+00
(PID.TID 0000.0001) %MON trcstat_ptracer1a_max        =   1.46134098989362707E-04
(PID.TID 0000.0001) %MON trcstat_ptracer1a_min        =   1.16542370708807171E-37
(PID.TID 0000.0001) %MON trcstat_ptracer1a_mean       =   3.53499580821636787E-06
(PID.TID 0000.0001) %MON trcstat_ptracer1a_sd         =   1.86275015155259800E-05
(PID.TID 0000.0001) %MON trcstat_ptracer1a_del2       =   0.00000000000000000E+00
(PID.TID 0000.0001) %MON trcstat_ptracer1b_max        =   3.73977517718468899E-04
(PID.TID 0000.0001) %MON trcstat_ptracer1b_min        =   8.33955620405715842E-35
(PID.TID 0000.0001) %MON trcstat_ptracer1b_mean       =   9.12574881342644686E-06
(PID.TID 0000.0001) %MON trcstat_ptracer1b_sd         =   4.80363188720596694E-05
(PID.TID 0000.0001) %MON trcstat_ptracer1b_del2       =   0.00000000000000000E+00
(PID.TID 0000.0001) %MON trcstat_ptracer1c_max        =   3.09450370015814877E-04
(PID.TID 0000.0001) %MON trcstat_ptracer1c_min        =   6.66503731429558263E-35
(PID.TID 0000.0001) %MON trcstat_ptracer1c_mean       =   7.58632647320334074E-06
(PID.TID 0000.0001) %MON trcstat_ptracer1c_sd         =   3.98823872848256034E-05
(PID.TID 0000.0001) %MON trcstat_ptracer1c_del2       =   0.00000000000000000E+00
(PID.TID 0000.0001) %MON trcstat_ptracer1d_max        =   1.68882390252837126E-04
(PID.TID 0000.0001) %MON trcstat_ptracer1d_min        =   1.90419453541530273E-37
(PID.TID 0000.0001) %MON trcstat_ptracer1d_mean       =   3.87022445062615660E-06
(PID.TID 0000.0001) %MON trcstat_ptracer1d_sd         =   2.04581210509993462E-05
(PID.TID 0000.0001) %MON trcstat_ptracer1d_del2       =   0.00000000000000000E+00
(PID.TID 0000.0001) %MON trcstat_ptracer1e_max        =   1.92342016597113789E-04
(PID.TID 0000.0001) %MON trcstat_ptracer1e_min        =   1.38222413580758715E-37
(PID.TID 0000.0001) %MON trcstat_ptracer1e_mean       =   4.73238336127536437E-06
(PID.TID 0000.0001) %MON trcstat_ptracer1e_sd         =   2.48683009365158765E-05
(PID.TID 0000.0001) %MON trcstat_ptracer1e_del2       =   0.00000000000000000E+00
(PID.TID 0000.0001) %MON trcstat_ptracer1f_max        =   1.17560944114816375E-04
(PID.TID 0000.0001) %MON trcstat_ptracer1f_min        =   9.95971892875328508E-38
(PID.TID 0000.0001) %MON trcstat_ptracer1f_mean       =   2.78718696413410851E-06
(PID.TID 0000.0001) %MON trcstat_ptracer1f_sd         =   1.47114293382616728E-05
(PID.TID 0000.0001) %MON trcstat_ptracer1f_del2       =   0.00000000000000000E+00
(PID.TID 0000.0001) %MON trcstat_ptracer1g_max        =   4.69507448816376238E-04
(PID.TID 0000.0001) %MON trcstat_ptracer1g_min        =   9.13254194957923581E-35
(PID.TID 0000.0001) %MON trcstat_ptracer1g_mean       =   1.17899429145261557E-05
(PID.TID 0000.0001) %MON trcstat_ptracer1g_sd         =   6.17192129078032817E-05
(PID.TID 0000.0001) %MON trcstat_ptracer1g_del2       =   0.00000000000000000E+00
(PID.TID 0000.0001) %MON trcstat_ptracer1h_max        =   4.01595666865711502E-04
(PID.TID 0000.0001) %MON trcstat_ptracer1h_min        =   7.76441565101744286E-35
(PID.TID 0000.0001) %MON trcstat_ptracer1h_mean       =   1.01007831952092816E-05
(PID.TID 0000.0001) %MON trcstat_ptracer1h_sd         =   5.28617328438906007E-05
(PID.TID 0000.0001) %MON trcstat_ptracer1h_del2       =   0.00000000000000000E+00
(PID.TID 0000.0001) %MON trcstat_ptracer1i_max        =   1.63464203614751354E-04
(PID.TID 0000.0001) %MON trcstat_ptracer1i_min        =   1.14418001866036208E-37
(PID.TID 0000.0001) %MON trcstat_ptracer1i_mean       =   4.05395851912958719E-06
(PID.TID 0000.0001) %MON trcstat_ptracer1i_sd         =   2.12640219451854946E-05
(PID.TID 0000.0001) %MON trcstat_ptracer1i_del2       =   0.00000000000000000E+00
(PID.TID 0000.0001) %MON trcstat_ptracer1j_max        =   1.43707036492854689E-04
(PID.TID 0000.0001) %MON trcstat_ptracer1j_min        =   1.17040004739000459E-37
(PID.TID 0000.0001) %MON trcstat_ptracer1j_mean       =   3.44932852253244626E-06
(PID.TID 0000.0001) %MON trcstat_ptracer1j_sd         =   1.81880895473890683E-05
(PID.TID 0000.0001) %MON trcstat_ptracer1j_del2       =   0.00000000000000000E+00
(PID.TID 0000.0001) %MON trcstat_ptracer1k_max        =   1.59073144422121614E-04
(PID.TID 0000.0001) %MON trcstat_ptracer1k_min        =   1.69640910015392500E-37
(PID.TID 0000.0001) %MON trcstat_ptracer1k_mean       =   3.64994345939348130E-06
(PID.TID 0000.0001) %MON trcstat_ptracer1k_sd         =   1.92997437112738694E-05
(PID.TID 0000.0001) %MON trcstat_ptracer1k_del2       =   0.00000000000000000E+00
(PID.TID 0000.0001) %MON trcstat_ptracer1l_max        =   4.59314147705525491E-04
(PID.TID 0000.0001) %MON trcstat_ptracer1l_min        =   9.13292770028290179E-35
(PID.TID 0000.0001) %MON trcstat_ptracer1l_mean       =   1.14560205433386063E-05
(PID.TID 0000.0001) %MON trcstat_ptracer1l_sd         =   6.00334523070286699E-05
(PID.TID 0000.0001) %MON trcstat_ptracer1l_del2       =   0.00000000000000000E+00
(PID.TID 0000.0001) %MON trcstat_ptracer1m_max        =   3.32172006037609855E-04
(PID.TID 0000.0001) %MON trcstat_ptracer1m_min        =   6.67564588821290817E-35
(PID.TID 0000.0001) %MON trcstat_ptracer1m_mean       =   8.26402682149115182E-06
(PID.TID 0000.0001) %MON trcstat_ptracer1m_sd         =   4.33159551575106421E-05
(PID.TID 0000.0001) %MON trcstat_ptracer1m_del2       =   0.00000000000000000E+00
(PID.TID 0000.0001) %MON trcstat_ptracer1n_max        =   3.70807322488362636E-04
(PID.TID 0000.0001) %MON trcstat_ptracer1n_min        =   8.62223500701059091E-35
(PID.TID 0000.0001) %MON trcstat_ptracer1n_mean       =   8.95546559377570184E-06
(PID.TID 0000.0001) %MON trcstat_ptracer1n_sd         =   4.71940199993957916E-05
(PID.TID 0000.0001) %MON trcstat_ptracer1n_del2       =   0.00000000000000000E+00
(PID.TID 0000.0001) %MON trcstat_ptracer1o_max        =   3.65037198429731598E-04
(PID.TID 0000.0001) %MON trcstat_ptracer1o_min        =   8.35447504808650114E-35
(PID.TID 0000.0001) %MON trcstat_ptracer1o_mean       =   8.87187095409261290E-06
(PID.TID 0000.0001) %MON trcstat_ptracer1o_sd         =   4.67292512780966639E-05
(PID.TID 0000.0001) %MON trcstat_ptracer1o_del2       =   0.00000000000000000E+00
(PID.TID 0000.0001) %MON trcstat_ptracer1p_max        =   3.11585350023045235E-04
(PID.TID 0000.0001) %MON trcstat_ptracer1p_min        =   6.29450958772958252E-35
(PID.TID 0000.0001) %MON trcstat_ptracer1p_mean       =   7.73345208468913074E-06
(PID.TID 0000.0001) %MON trcstat_ptracer1p_sd         =   4.05562149179268416E-05
(PID.TID 0000.0001) %MON trcstat_ptracer1p_del2       =   0.00000000000000000E+00
(PID.TID 0000.0001) %MON trcstat_ptracer1q_max        =   1.78866488258328914E-04
(PID.TID 0000.0001) %MON trcstat_ptracer1q_min        =   1.21840140340623397E-37
(PID.TID 0000.0001) %MON trcstat_ptracer1q_mean       =   4.45666397643757787E-06
(PID.TID 0000.0001) %MON trcstat_ptracer1q_sd         =   2.33626498127627256E-05
(PID.TID 0000.0001) %MON trcstat_ptracer1q_del2       =   0.00000000000000000E+00
(PID.TID 0000.0001) %MON trcstat_ptracer1r_max        =   1.64858296724394282E-04
(PID.TID 0000.0001) %MON trcstat_ptracer1r_min        =   1.24772772423301465E-37
(PID.TID 0000.0001) %MON trcstat_ptracer1r_mean       =   4.03125149041790811E-06
(PID.TID 0000.0001) %MON trcstat_ptracer1r_sd         =   2.12078013066873028E-05
(PID.TID 0000.0001) %MON trcstat_ptracer1r_del2       =   0.00000000000000000E+00
(PID.TID 0000.0001) %MON trcstat_ptracer1s_max        =   3.47133906908277112E-04
(PID.TID 0000.0001) %MON trcstat_ptracer1s_min        =   5.94547650894763382E-35
(PID.TID 0000.0001) %MON trcstat_ptracer1s_mean       =   8.82350429055009410E-06
(PID.TID 0000.0001) %MON trcstat_ptracer1s_sd         =   4.59466237622060546E-05
(PID.TID 0000.0001) %MON trcstat_ptracer1s_del2       =   0.00000000000000000E+00
(PID.TID 0000.0001) %MON trcstat_ptracer1t_max        =   1.58133039013765741E-04
(PID.TID 0000.0001) %MON trcstat_ptracer1t_min        =   1.66031983284474663E-37
(PID.TID 0000.0001) %MON trcstat_ptracer1t_mean       =   3.63098013848609929E-06
(PID.TID 0000.0001) %MON trcstat_ptracer1t_sd         =   1.92000495855085329E-05
(PID.TID 0000.0001) %MON trcstat_ptracer1t_del2       =   0.00000000000000000E+00
(PID.TID 0000.0001) %MON trcstat_ptracer1u_max        =   1.98489749959552620E-04
(PID.TID 0000.0001) %MON trcstat_ptracer1u_min        =   1.72398668919426181E-37
(PID.TID 0000.0001) %MON trcstat_ptracer1u_mean       =   4.66277013896115576E-06
(PID.TID 0000.0001) %MON trcstat_ptracer1u_sd         =   2.46342693097193971E-05
(PID.TID 0000.0001) %MON trcstat_ptracer1u_del2       =   0.00000000000000000E+00
(PID.TID 0000.0001) %MON trcstat_ptracer1v_max        =   1.83469513426998631E-04
(PID.TID 0000.0001) %MON trcstat_ptracer1v_min        =   1.71814870642834953E-37
(PID.TID 0000.0001) %MON trcstat_ptracer1v_mean       =   4.25984990191317429E-06
(PID.TID 0000.0001) %MON trcstat_ptracer1v_sd         =   2.25169378531679077E-05
(PID.TID 0000.0001) %MON trcstat_ptracer1v_del2       =   0.00000000000000000E+00
(PID.TID 0000.0001) %MON trcstat_ptracer1w_max        =   2.30657014267493814E-04
(PID.TID 0000.0001) %MON trcstat_ptracer1w_min        =   1.76993335933484608E-37
(PID.TID 0000.0001) %MON trcstat_ptracer1w_mean       =   5.62370032043533887E-06
(PID.TID 0000.0001) %MON trcstat_ptracer1w_sd         =   2.96155933243072474E-05
(PID.TID 0000.0001) %MON trcstat_ptracer1w_del2       =   0.00000000000000000E+00
(PID.TID 0000.0001) %MON trcstat_ptracer1x_max        =   1.52295387918940044E-04
(PID.TID 0000.0001) %MON trcstat_ptracer1x_min        =   1.34780962685903048E-37
(PID.TID 0000.0001) %MON trcstat_ptracer1x_mean       =   3.57206892474968091E-06
(PID.TID 0000.0001) %MON trcstat_ptracer1x_sd         =   1.88697525350851722E-05
(PID.TID 0000.0001) %MON trcstat_ptracer1x_del2       =   0.00000000000000000E+00
(PID.TID 0000.0001) // =======================================================
(PID.TID 0000.0001) // End MONITOR ptracers field statistics
(PID.TID 0000.0001) // =======================================================
 Computing Diagnostic #    140  TRAC01       Counter:       1   Parms: SMR     MR      
 Computing Diagnostic #    152  TRAC02       Counter:       1   Parms: SMR     MR      
 Computing Diagnostic #    164  TRAC03       Counter:       1   Parms: SMR     MR      
 Computing Diagnostic #    176  TRAC04       Counter:       1   Parms: SMR     MR      
 Computing Diagnostic #    188  TRAC05       Counter:       1   Parms: SMR     MR      
 Computing Diagnostic #    200  TRAC06       Counter:       1   Parms: SMR     MR      
 Computing Diagnostic #    212  TRAC07       Counter:       1   Parms: SMR     MR      
 Computing Diagnostic #    224  TRAC08       Counter:       1   Parms: SMR     MR      
 Computing Diagnostic #    236  TRAC09       Counter:       1   Parms: SMR     MR      
 Computing Diagnostic #    248  TRAC10       Counter:       1   Parms: SMR     MR      
 Computing Diagnostic #    260  TRAC11       Counter:       1   Parms: SMR     MR      
 Computing Diagnostic #    272  TRAC12       Counter:       1   Parms: SMR     MR      
 Computing Diagnostic #    284  TRAC13       Counter:       1   Parms: SMR     MR      
 Computing Diagnostic #    296  TRAC14       Counter:       1   Parms: SMR     MR      
 Computing Diagnostic #    308  TRAC15       Counter:       1   Parms: SMR     MR      
 Computing Diagnostic #    320  TRAC16       Counter:       1   Parms: SMR     MR      
 Computing Diagnostic #    332  TRAC17       Counter:       1   Parms: SMR     MR      
 Computing Diagnostic #    344  TRAC18       Counter:       1   Parms: SMR     MR      
 Computing Diagnostic #    356  TRAC19       Counter:       1   Parms: SMR     MR      
 Computing Diagnostic #    368  TRAC20       Counter:       1   Parms: SMR     MR      
 Computing Diagnostic #    380  TRAC21       Counter:       1   Parms: SMR     MR      
 Computing Diagnostic #    392  TRAC22       Counter:       1   Parms: SMR     MR      
 Computing Diagnostic #    404  TRAC23       Counter:       1   Parms: SMR     MR      
 Computing Diagnostic #    416  TRAC24       Counter:       1   Parms: SMR     MR      
 Computing Diagnostic #    428  TRAC25       Counter:       1   Parms: SMR     MR      
 Computing Diagnostic #    440  TRAC26       Counter:       1   Parms: SMR     MR      
 Computing Diagnostic #    452  TRAC27       Counter:       1   Parms: SMR     MR      
 Computing Diagnostic #    464  TRAC28       Counter:       1   Parms: SMR     MR      
 Computing Diagnostic #    476  TRAC29       Counter:       1   Parms: SMR     MR      
 Computing Diagnostic #    488  TRAC30       Counter:       1   Parms: SMR     MR      
 Computing Diagnostic #    500  TRAC31       Counter:       1   Parms: SMR     MR      
 Computing Diagnostic #    512  TRAC32       Counter:       1   Parms: SMR     MR      
 Computing Diagnostic #    524  TRAC33       Counter:       1   Parms: SMR     MR      
 Computing Diagnostic #    536  TRAC34       Counter:       1   Parms: SMR     MR      
 Computing Diagnostic #    548  TRAC35       Counter:       1   Parms: SMR     MR      
 Computing Diagnostic #    560  TRAC36       Counter:       1   Parms: SMR     MR      
 Computing Diagnostic #    572  TRAC37       Counter:       1   Parms: SMR     MR      
 Computing Diagnostic #    584  TRAC38       Counter:       1   Parms: SMR     MR      
 Computing Diagnostic #    596  TRAC39       Counter:       1   Parms: SMR     MR      
 Computing Diagnostic #    608  TRAC40       Counter:       1   Parms: SMR     MR      
 Computing Diagnostic #    620  TRAC41       Counter:       1   Parms: SMR     MR      
 Computing Diagnostic #    632  TRAC42       Counter:       1   Parms: SMR     MR      
 Computing Diagnostic #    644  TRAC43       Counter:       1   Parms: SMR     MR      
 Computing Diagnostic #    656  TRAC44       Counter:       1   Parms: SMR     MR      
 Computing Diagnostic #    668  TRAC45       Counter:       1   Parms: SMR     MR      
 Computing Diagnostic #    680  TRAC46       Counter:       1   Parms: SMR     MR      
 Computing Diagnostic #    692  TRAC47       Counter:       1   Parms: SMR     MR      
 Computing Diagnostic #    704  TRAC48       Counter:       1   Parms: SMR     MR      
 Computing Diagnostic #    716  TRAC49       Counter:       1   Parms: SMR     MR      
 Computing Diagnostic #    728  TRAC50       Counter:       1   Parms: SMR     MR      
 Computing Diagnostic #    740  TRAC51       Counter:       1   Parms: SMR     MR      
 Computing Diagnostic #    752  TRAC52       Counter:       1   Parms: SMR     MR      
 Computing Diagnostic #    764  TRAC53       Counter:       1   Parms: SMR     MR      
 Computing Diagnostic #    776  TRAC54       Counter:       1   Parms: SMR     MR      
 Computing Diagnostic #    788  TRAC55       Counter:       1   Parms: SMR     MR      
 Computing Diagnostic #    800  TRAC56       Counter:       1   Parms: SMR     MR      
 Computing Diagnostic #    812  TRAC57       Counter:       1   Parms: SMR     MR      
 Computing Diagnostic #    824  TRAC58       Counter:       1   Parms: SMR     MR      
 Computing Diagnostic #    836  TRAC59       Counter:       1   Parms: SMR     MR      
 Computing Diagnostic #    848  TRAC60       Counter:       1   Parms: SMR     MR      
 Computing Diagnostic #    860  TRAC61       Counter:       1   Parms: SMR     MR      
 Computing Diagnostic #    872  TRAC62       Counter:       1   Parms: SMR     MR      
 Computing Diagnostic #    884  TRAC63       Counter:       1   Parms: SMR     MR      
 Computing Diagnostic #    896  TRAC64       Counter:       1   Parms: SMR     MR      
 Computing Diagnostic #    908  TRAC65       Counter:       1   Parms: SMR     MR      
 Computing Diagnostic #    920  TRAC66       Counter:       1   Parms: SMR     MR      
 Computing Diagnostic #    932  TRAC67       Counter:       1   Parms: SMR     MR      
 Computing Diagnostic #    944  TRAC68       Counter:       1   Parms: SMR     MR      
 Computing Diagnostic #    956  TRAC69       Counter:       1   Parms: SMR     MR      
 Computing Diagnostic #    968  TRAC70       Counter:       1   Parms: SMR     MR      
 Computing Diagnostic #    980  TRAC71       Counter:       1   Parms: SMR     MR      
 Computing Diagnostic #    992  TRAC72       Counter:       1   Parms: SMR     MR      
 Computing Diagnostic #   1004  TRAC73       Counter:       1   Parms: SMR     MR      
 Computing Diagnostic #   1016  TRAC74       Counter:       1   Parms: SMR     MR      
 Computing Diagnostic #   1028  TRAC75       Counter:       1   Parms: SMR     MR      
 Computing Diagnostic #   1040  TRAC76       Counter:       1   Parms: SMR     MR      
 Computing Diagnostic #   1052  TRAC77       Counter:       1   Parms: SMR     MR      
 Computing Diagnostic #   1064  TRAC78       Counter:       1   Parms: SMR     MR      
 Computing Diagnostic #   1076  TRAC79       Counter:       1   Parms: SMR     MR      
 Computing Diagnostic #   1088  TRAC80       Counter:       1   Parms: SMR     MR      
 Computing Diagnostic #   1100  TRAC81       Counter:       1   Parms: SMR     MR      
 Computing Diagnostic #   1112  TRAC82       Counter:       1   Parms: SMR     MR      
 Computing Diagnostic #   1124  TRAC83       Counter:       1   Parms: SMR     MR      
 Computing Diagnostic #   1136  TRAC84       Counter:       1   Parms: SMR     MR      
 Computing Diagnostic #   1148  TRAC85       Counter:       1   Parms: SMR     MR      
 Computing Diagnostic #   1160  TRAC86       Counter:       1   Parms: SMR     MR      
 Computing Diagnostic #   1172  TRAC87       Counter:       1   Parms: SMR     MR      
 Computing Diagnostic #   1184  TRAC88       Counter:       1   Parms: SMR     MR      
 Computing Diagnostic #   1196  TRAC89       Counter:       1   Parms: SMR     MR      
 Computing Diagnostic #   1208  TRAC90       Counter:       1   Parms: SMR     MR      
 Computing Diagnostic #   1220  TRAC91       Counter:       1   Parms: SMR     MR      
 Computing Diagnostic #   1232  TRAC92       Counter:       1   Parms: SMR     MR      
 Computing Diagnostic #   1244  TRAC93       Counter:       1   Parms: SMR     MR      
 Computing Diagnostic #   1256  TRAC94       Counter:       1   Parms: SMR     MR      
 Computing Diagnostic #   1268  TRAC95       Counter:       1   Parms: SMR     MR      
 Computing Diagnostic #   1280  TRAC96       Counter:       1   Parms: SMR     MR      
 Computing Diagnostic #   1292  TRAC97       Counter:       1   Parms: SMR     MR      
 Computing Diagnostic #   1304  TRAC98       Counter:       1   Parms: SMR     MR      
 Computing Diagnostic #   1316  TRAC99       Counter:       1   Parms: SMR     MR      
 Computing Diagnostic #   1328  TRAC0a       Counter:       1   Parms: SMR     MR      
 Computing Diagnostic #   1340  TRAC0b       Counter:       1   Parms: SMR     MR      
 Computing Diagnostic #   1352  TRAC0c       Counter:       1   Parms: SMR     MR      
 Computing Diagnostic #   1364  TRAC0d       Counter:       1   Parms: SMR     MR      
 Computing Diagnostic #   1376  TRAC0e       Counter:       1   Parms: SMR     MR      
 Computing Diagnostic #   1388  TRAC0f       Counter:       1   Parms: SMR     MR      
 Computing Diagnostic #   1400  TRAC0g       Counter:       1   Parms: SMR     MR      
 Computing Diagnostic #   1412  TRAC0h       Counter:       1   Parms: SMR     MR      
 Computing Diagnostic #   1424  TRAC0i       Counter:       1   Parms: SMR     MR      
 Computing Diagnostic #   1436  TRAC0j       Counter:       1   Parms: SMR     MR      
 Computing Diagnostic #   1448  TRAC0k       Counter:       1   Parms: SMR     MR      
 Computing Diagnostic #   1460  TRAC0l       Counter:       1   Parms: SMR     MR      
 Computing Diagnostic #   1472  TRAC0m       Counter:       1   Parms: SMR     MR      
 Computing Diagnostic #   1484  TRAC0n       Counter:       1   Parms: SMR     MR      
 Computing Diagnostic #   1496  TRAC0o       Counter:       1   Parms: SMR     MR      
 Computing Diagnostic #   1508  TRAC0p       Counter:       1   Parms: SMR     MR      
 Computing Diagnostic #   1520  TRAC0q       Counter:       1   Parms: SMR     MR      
 Computing Diagnostic #   1532  TRAC0r       Counter:       1   Parms: SMR     MR      
 Computing Diagnostic #   1544  TRAC0s       Counter:       1   Parms: SMR     MR      
 Computing Diagnostic #   1556  TRAC0t       Counter:       1   Parms: SMR     MR      
 Computing Diagnostic #   1568  TRAC0u       Counter:       1   Parms: SMR     MR      
 Computing Diagnostic #   1580  TRAC0v       Counter:       1   Parms: SMR     MR      
 Computing Diagnostic #   1592  TRAC0w       Counter:       1   Parms: SMR     MR      
 Computing Diagnostic #   1604  TRAC0x       Counter:       1   Parms: SMR     MR      
 Computing Diagnostic #   1616  TRAC0y       Counter:       1   Parms: SMR     MR      
 Computing Diagnostic #   1628  TRAC0z       Counter:       1   Parms: SMR     MR      
 Computing Diagnostic #   1640  TRAC0A       Counter:       1   Parms: SMR     MR      
 Computing Diagnostic #   1652  TRAC0B       Counter:       1   Parms: SMR     MR      
 Computing Diagnostic #   1664  TRAC0C       Counter:       1   Parms: SMR     MR      
 Computing Diagnostic #   1676  TRAC0D       Counter:       1   Parms: SMR     MR      
 Computing Diagnostic #   1688  TRAC0E       Counter:       1   Parms: SMR     MR      
 Computing Diagnostic #   1700  TRAC0F       Counter:       1   Parms: SMR     MR      
 Computing Diagnostic #   1712  TRAC0G       Counter:       1   Parms: SMR     MR      
 Computing Diagnostic #   1724  TRAC0H       Counter:       1   Parms: SMR     MR      
 Computing Diagnostic #   1736  TRAC0I       Counter:       1   Parms: SMR     MR      
 Computing Diagnostic #   1748  TRAC0J       Counter:       1   Parms: SMR     MR      
 Computing Diagnostic #   1760  TRAC0K       Counter:       1   Parms: SMR     MR      
 Computing Diagnostic #   1772  TRAC0L       Counter:       1   Parms: SMR     MR      
 Computing Diagnostic #   1784  TRAC0M       Counter:       1   Parms: SMR     MR      
 Computing Diagnostic #   1796  TRAC0N       Counter:       1   Parms: SMR     MR      
 Computing Diagnostic #   1808  TRAC0O       Counter:       1   Parms: SMR     MR      
 Computing Diagnostic #   1820  TRAC0P       Counter:       1   Parms: SMR     MR      
 Computing Diagnostic #   1832  TRAC0Q       Counter:       1   Parms: SMR     MR      
 Computing Diagnostic #   1844  TRAC0R       Counter:       1   Parms: SMR     MR      
 Computing Diagnostic #   1856  TRAC0S       Counter:       1   Parms: SMR     MR      
 Computing Diagnostic #   1868  TRAC0T       Counter:       1   Parms: SMR     MR      
 Computing Diagnostic #   1880  TRAC0U       Counter:       1   Parms: SMR     MR      
 Computing Diagnostic #   1892  TRAC0V       Counter:       1   Parms: SMR     MR      
 Computing Diagnostic #   1904  TRAC0W       Counter:       1   Parms: SMR     MR      
 Computing Diagnostic #   1916  TRAC0X       Counter:       1   Parms: SMR     MR      
 Computing Diagnostic #   1928  TRAC0Y       Counter:       1   Parms: SMR     MR      
 Computing Diagnostic #   1940  TRAC0Z       Counter:       1   Parms: SMR     MR      
 Computing Diagnostic #   1952  TRAC1a       Counter:       1   Parms: SMR     MR      
 Computing Diagnostic #   1964  TRAC1b       Counter:       1   Parms: SMR     MR      
 Computing Diagnostic #   1976  TRAC1c       Counter:       1   Parms: SMR     MR      
 Computing Diagnostic #   1988  TRAC1d       Counter:       1   Parms: SMR     MR      
 Computing Diagnostic #   2000  TRAC1e       Counter:       1   Parms: SMR     MR      
 Computing Diagnostic #   2012  TRAC1f       Counter:       1   Parms: SMR     MR      
 Computing Diagnostic #   2024  TRAC1g       Counter:       1   Parms: SMR     MR      
 Computing Diagnostic #   2036  TRAC1h       Counter:       1   Parms: SMR     MR      
 Computing Diagnostic #   2048  TRAC1i       Counter:       1   Parms: SMR     MR      
 Computing Diagnostic #   2060  TRAC1j       Counter:       1   Parms: SMR     MR      
 Computing Diagnostic #   2072  TRAC1k       Counter:       1   Parms: SMR     MR      
 Computing Diagnostic #   2084  TRAC1l       Counter:       1   Parms: SMR     MR      
 Computing Diagnostic #   2096  TRAC1m       Counter:       1   Parms: SMR     MR      
 Computing Diagnostic #   2108  TRAC1n       Counter:       1   Parms: SMR     MR      
 Computing Diagnostic #   2120  TRAC1o       Counter:       1   Parms: SMR     MR      
 Computing Diagnostic #   2132  TRAC1p       Counter:       1   Parms: SMR     MR      
 Computing Diagnostic #   2144  TRAC1q       Counter:       1   Parms: SMR     MR      
 Computing Diagnostic #   2156  TRAC1r       Counter:       1   Parms: SMR     MR      
 Computing Diagnostic #   2168  TRAC1s       Counter:       1   Parms: SMR     MR      
 Computing Diagnostic #   2180  TRAC1t       Counter:       1   Parms: SMR     MR      
 Computing Diagnostic #   2192  TRAC1u       Counter:       1   Parms: SMR     MR      
 Computing Diagnostic #   2204  TRAC1v       Counter:       1   Parms: SMR     MR      
 Computing Diagnostic #   2216  TRAC1w       Counter:       1   Parms: SMR     MR      
 Computing Diagnostic #   2228  TRAC1x       Counter:       1   Parms: SMR     MR      
 Computing Diagnostic #   2245  PAR01        Counter:       2   Parms: SM P    MR      
 Computing Diagnostic #   2252  DIC_c01      Counter:       1   Parms: SM P    MR      
 Computing Diagnostic #   2263  DIC_c02      Counter:       1   Parms: SM P    MR      
 Computing Diagnostic #   2253  c01_DOC      Counter:       1   Parms: SM P    MR      
 Computing Diagnostic #   2264  c02_DOC      Counter:       1   Parms: SM P    MR      
 Computing Diagnostic #   2254  c01_POC      Counter:       1   Parms: SM P    MR      
 Computing Diagnostic #   2265  c02_POC      Counter:       1   Parms: SM P    MR      
 Computing Diagnostic #   2244  PARF         Counter:       2   Parms: SM P    MR      
 Computing Diagnostic #   2241  atten        Counter:       2   Parms: SM P    MR      
 Computing Diagnostic #   2243  surfPAR      Counter:       2   Parms: SM P    MR      
 Computing Diagnostic #   2242  exfPAR       Counter:       1   Parms: SM P    MR      
 Computing Diagnostic #   2246  limn01       Counter:       1   Parms: SM P    MR      
 Computing Diagnostic #   2247  limp01       Counter:       1   Parms: SM P    MR      
 Computing Diagnostic #   2248  limsi01      Counter:       1   Parms: SM P    MR      
 Computing Diagnostic #   2249  limfe01      Counter:       1   Parms: SM P    MR      
 Computing Diagnostic #   2250  limI01       Counter:       1   Parms: SM P    MR      
 Computing Diagnostic #   2251  limT01       Counter:       1   Parms: SM P    MR      
 Computing Diagnostic #   2255  c01_c        Counter:       1   Parms: SM P    MR      
 Computing Diagnostic #   2266  c02_c        Counter:       1   Parms: SM P    MR      
 Computing Diagnostic #   2278  c_c03        Counter:       1   Parms: SM P    MR      
 Computing Diagnostic #   2289  c_c04        Counter:       1   Parms: SM P    MR      
 Computing Diagnostic #   3126  c_DOC        Counter:       1   Parms: SM P    MR      
 Computing Diagnostic #   3127  c_POC        Counter:       1   Parms: SM P    MR      
 Computing Diagnostic #   3128  c_PIC        Counter:       1   Parms: SM P    MR      
 Computing Diagnostic #   3129  n_DON        Counter:       1   Parms: SM P    MR      
 Computing Diagnostic #   3130  n_PON        Counter:       1   Parms: SM P    MR      
 Computing Diagnostic #   3131  p_DOP        Counter:       1   Parms: SM P    MR      
 Computing Diagnostic #   3132  p_POP        Counter:       1   Parms: SM P    MR      
(PID.TID 0000.0001) // =======================================================
(PID.TID 0000.0001) // Begin MONITOR EXF statistics
(PID.TID 0000.0001) // =======================================================
(PID.TID 0000.0001) %MON exf_tsnumber                 =                     1
(PID.TID 0000.0001) %MON exf_time_sec                 =   3.60000000000000000E+03
(PID.TID 0000.0001) %MON exf_ustress_max              =   0.00000000000000000E+00
(PID.TID 0000.0001) %MON exf_ustress_min              =   0.00000000000000000E+00
(PID.TID 0000.0001) %MON exf_ustress_mean             =   0.00000000000000000E+00
(PID.TID 0000.0001) %MON exf_ustress_sd               =   0.00000000000000000E+00
(PID.TID 0000.0001) %MON exf_ustress_del2             =   0.00000000000000000E+00
(PID.TID 0000.0001) %MON exf_vstress_max              =   0.00000000000000000E+00
(PID.TID 0000.0001) %MON exf_vstress_min              =   0.00000000000000000E+00
(PID.TID 0000.0001) %MON exf_vstress_mean             =   0.00000000000000000E+00
(PID.TID 0000.0001) %MON exf_vstress_sd               =   0.00000000000000000E+00
(PID.TID 0000.0001) %MON exf_vstress_del2             =   0.00000000000000000E+00
(PID.TID 0000.0001) %MON exf_hflux_max                =   0.00000000000000000E+00
(PID.TID 0000.0001) %MON exf_hflux_min                =   0.00000000000000000E+00
(PID.TID 0000.0001) %MON exf_hflux_mean               =   0.00000000000000000E+00
(PID.TID 0000.0001) %MON exf_hflux_sd                 =   0.00000000000000000E+00
(PID.TID 0000.0001) %MON exf_hflux_del2               =   0.00000000000000000E+00
(PID.TID 0000.0001) %MON exf_sflux_max                =   0.00000000000000000E+00
(PID.TID 0000.0001) %MON exf_sflux_min                =   0.00000000000000000E+00
(PID.TID 0000.0001) %MON exf_sflux_mean               =   0.00000000000000000E+00
(PID.TID 0000.0001) %MON exf_sflux_sd                 =   0.00000000000000000E+00
(PID.TID 0000.0001) %MON exf_sflux_del2               =   0.00000000000000000E+00
(PID.TID 0000.0001) %MON exf_uwind_max                =   0.00000000000000000E+00
(PID.TID 0000.0001) %MON exf_uwind_min                =   0.00000000000000000E+00
(PID.TID 0000.0001) %MON exf_uwind_mean               =   0.00000000000000000E+00
(PID.TID 0000.0001) %MON exf_uwind_sd                 =   0.00000000000000000E+00
(PID.TID 0000.0001) %MON exf_uwind_del2               =   0.00000000000000000E+00
(PID.TID 0000.0001) %MON exf_vwind_max                =   0.00000000000000000E+00
(PID.TID 0000.0001) %MON exf_vwind_min                =   0.00000000000000000E+00
(PID.TID 0000.0001) %MON exf_vwind_mean               =   0.00000000000000000E+00
(PID.TID 0000.0001) %MON exf_vwind_sd                 =   0.00000000000000000E+00
(PID.TID 0000.0001) %MON exf_vwind_del2               =   0.00000000000000000E+00
(PID.TID 0000.0001) %MON exf_wspeed_max               =   0.00000000000000000E+00
(PID.TID 0000.0001) %MON exf_wspeed_min               =   0.00000000000000000E+00
(PID.TID 0000.0001) %MON exf_wspeed_mean              =   0.00000000000000000E+00
(PID.TID 0000.0001) %MON exf_wspeed_sd                =   0.00000000000000000E+00
(PID.TID 0000.0001) %MON exf_wspeed_del2              =   0.00000000000000000E+00
(PID.TID 0000.0001) %MON exf_evap_max                 =   0.00000000000000000E+00
(PID.TID 0000.0001) %MON exf_evap_min                 =   0.00000000000000000E+00
(PID.TID 0000.0001) %MON exf_evap_mean                =   0.00000000000000000E+00
(PID.TID 0000.0001) %MON exf_evap_sd                  =   0.00000000000000000E+00
(PID.TID 0000.0001) %MON exf_evap_del2                =   0.00000000000000000E+00
(PID.TID 0000.0001) // =======================================================
(PID.TID 0000.0001) // End MONITOR EXF statistics
(PID.TID 0000.0001) // =======================================================
 EXTERNAL_FIELDS_LOAD,         1 : iP,iLd,i0,i1=   12    1   12    1 ; Wght=  0.4986111111  0.5013888889
 exf          12           1  0.49861111111111112       0.50138888888888888     
 exf          12           1  0.49861111111111112       0.50138888888888888     
 PAR           1   561.04120108616598        685.79567631576288       0.20078539037689519     
 PAR           2   375.36387896626047        458.98106416652081       0.20111305526926940     
 PAR           3   250.94954874286739        306.98007528580501       0.20153092622790614     
 PAR           4   167.61531472634010        205.14580940022600       0.20204943115383356     
 PAR           5   111.82852107162134        136.95085370229890       0.20265549320672621     
 PAR           6   74.519493393372542        91.314641617718763       0.20325039550855475     
 PAR           7   49.599210431760362        60.813411707322032       0.20383543704813381     
 PAR           8   32.988847838510402        40.452946256226049       0.20396991777865758     
 PAR           9   21.939087816031112        26.901973340072839       0.20392976459903328     
 PAR          10   14.598603192506578        17.891757162756210       0.20341426069482094     
 PAR          11   9.7269766204426205        11.911586616874944       0.20260847138538565     
 PAR          12   6.4924255120151999        7.9430286844070963       0.20165845736475160     
 PAR          13   4.3395620313053369        5.3067401244330537       0.20120430562190394     
 PAR          14   2.9027303055169895        3.5486566483333872       0.20091734421767465     
 PAR          15   1.7573617536915465        2.3743754500802212       0.30092075368126459     
 PAR          16  0.96337606913062468        1.3006874431899489       0.30020435226296915     
 PAR          17  0.52852162439851891       0.71354071682080333       0.30015578058402737     
 PAR          18  0.28998260316746127       0.39147746004100931       0.30010700833931142     
 PAR          19  0.15911960621965082       0.21480140933521039       0.30005776395965972     
 PAR          20   7.9011019822538206E-002  0.11787189461119812       0.40001106168122069     
 PAR          21   3.5501546656627400E-002   5.2962084591829828E-002  0.40000000915766831     
 PAR          22   1.5951873037674778E-002   2.3797398171278197E-002  0.40000000000155855     
 PAR          23   7.1676385877366714E-003   1.0692860268952165E-002  0.40000000000000024     
 PAR          24   1.7675179143665670E-003   4.8046118280984694E-003   1.0000000000000000     
 PAR          25   2.3920753756658626E-004   6.5023350259768586E-004   1.0000000000000000     
 PAR          26   1.1909442026936015E-005   8.7999535243992556E-005   2.0000000000000000     
 PAR          27   8.0245189166168183E-008   1.6117677099054039E-006   3.0000000000000955     
 PAR          28   1.9890793138913804E-010   3.9951727192078088E-009   3.0000000297800389     
 PAR          29   1.8138051581391833E-013   9.9030424840684121E-012   4.0000001886865766     
 PAR          30   8.2346604850664222E-018   3.3220994022644451E-015   6.0000000776472273     
 PAR          31   6.8473554449009782E-024   2.0411681016556347E-020   8.0000001035174524     
 PAR          32   7.7056826158690495E-031   2.2970316139461824E-027   8.0000000000034124     
 PAR          33   8.6716033950502209E-038   2.5849685400933121E-034   8.0000000000000000     
 PAR          34   1.3206834406079612E-045   2.9089988630318903E-041   10.000000000000000     
 PAR          35   2.7221314577037174E-054   5.9958935442078274E-050   10.000000000000000     
 fe   1.3002599844813565E-003
 fe   1.3002599844813565E-003   3.1584388741996922E-004
(PID.TID 0000.0001) // =======================================================
(PID.TID 0000.0001) // Begin MONITOR dynamic field statistics
(PID.TID 0000.0001) // =======================================================
(PID.TID 0000.0001) %MON time_tsnumber                =                     2
(PID.TID 0000.0001) %MON time_secondsf                =   7.20000000000000000E+03
(PID.TID 0000.0001) %MON dynstat_eta_max              =   0.00000000000000000E+00
(PID.TID 0000.0001) %MON dynstat_eta_min              =   0.00000000000000000E+00
(PID.TID 0000.0001) %MON dynstat_eta_mean             =   0.00000000000000000E+00
(PID.TID 0000.0001) %MON dynstat_eta_sd               =   0.00000000000000000E+00
(PID.TID 0000.0001) %MON dynstat_eta_del2             =   0.00000000000000000E+00
(PID.TID 0000.0001) %MON dynstat_uvel_max             =   0.00000000000000000E+00
(PID.TID 0000.0001) %MON dynstat_uvel_min             =   0.00000000000000000E+00
(PID.TID 0000.0001) %MON dynstat_uvel_mean            =   0.00000000000000000E+00
(PID.TID 0000.0001) %MON dynstat_uvel_sd              =   0.00000000000000000E+00
(PID.TID 0000.0001) %MON dynstat_uvel_del2            =   0.00000000000000000E+00
(PID.TID 0000.0001) %MON dynstat_vvel_max             =   0.00000000000000000E+00
(PID.TID 0000.0001) %MON dynstat_vvel_min             =   0.00000000000000000E+00
(PID.TID 0000.0001) %MON dynstat_vvel_mean            =   0.00000000000000000E+00
(PID.TID 0000.0001) %MON dynstat_vvel_sd              =   0.00000000000000000E+00
(PID.TID 0000.0001) %MON dynstat_vvel_del2            =   0.00000000000000000E+00
(PID.TID 0000.0001) %MON dynstat_wvel_max             =   0.00000000000000000E+00
(PID.TID 0000.0001) %MON dynstat_wvel_min             =   0.00000000000000000E+00
(PID.TID 0000.0001) %MON dynstat_wvel_mean            =   0.00000000000000000E+00
(PID.TID 0000.0001) %MON dynstat_wvel_sd              =   0.00000000000000000E+00
(PID.TID 0000.0001) %MON dynstat_wvel_del2            =   0.00000000000000000E+00
(PID.TID 0000.0001) %MON dynstat_theta_max            =   2.63261332029828949E+01
(PID.TID 0000.0001) %MON dynstat_theta_min            =   2.67370054292647286E+00
(PID.TID 0000.0001) %MON dynstat_theta_mean           =   5.47354115267881625E+00
(PID.TID 0000.0001) %MON dynstat_theta_sd             =   5.19696612256801593E+00
(PID.TID 0000.0001) %MON dynstat_theta_del2           =   0.00000000000000000E+00
(PID.TID 0000.0001) %MON dynstat_salt_max             =   3.50000000000000000E+01
(PID.TID 0000.0001) %MON dynstat_salt_min             =   3.50000000000000000E+01
(PID.TID 0000.0001) %MON dynstat_salt_mean            =   3.50000000000000071E+01
(PID.TID 0000.0001) %MON dynstat_salt_sd              =   7.10542735760100186E-15
(PID.TID 0000.0001) %MON dynstat_salt_del2            =   0.00000000000000000E+00
(PID.TID 0000.0001) %MON dynstat_sst_max              =   2.63261332029828949E+01
(PID.TID 0000.0001) %MON dynstat_sst_min              =   2.63261332029828949E+01
(PID.TID 0000.0001) %MON dynstat_sst_mean             =   2.63261332029828949E+01
(PID.TID 0000.0001) %MON dynstat_sst_sd               =   0.00000000000000000E+00
(PID.TID 0000.0001) %MON dynstat_sst_del2             =   0.00000000000000000E+00
(PID.TID 0000.0001) %MON dynstat_sss_max              =   3.50000000000000000E+01
(PID.TID 0000.0001) %MON dynstat_sss_min              =   3.50000000000000000E+01
(PID.TID 0000.0001) %MON dynstat_sss_mean             =   3.50000000000000000E+01
(PID.TID 0000.0001) %MON dynstat_sss_sd               =   0.00000000000000000E+00
(PID.TID 0000.0001) %MON dynstat_sss_del2             =   0.00000000000000000E+00
(PID.TID 0000.0001) %MON forcing_qnet_max             =   0.00000000000000000E+00
(PID.TID 0000.0001) %MON forcing_qnet_min             =   0.00000000000000000E+00
(PID.TID 0000.0001) %MON forcing_qnet_mean            =   0.00000000000000000E+00
(PID.TID 0000.0001) %MON forcing_qnet_sd              =   0.00000000000000000E+00
(PID.TID 0000.0001) %MON forcing_qnet_del2            =   0.00000000000000000E+00
(PID.TID 0000.0001) %MON forcing_qsw_max              =   0.00000000000000000E+00
(PID.TID 0000.0001) %MON forcing_qsw_min              =   0.00000000000000000E+00
(PID.TID 0000.0001) %MON forcing_qsw_mean             =   0.00000000000000000E+00
(PID.TID 0000.0001) %MON forcing_qsw_sd               =   0.00000000000000000E+00
(PID.TID 0000.0001) %MON forcing_qsw_del2             =   0.00000000000000000E+00
(PID.TID 0000.0001) %MON forcing_empmr_max            =   0.00000000000000000E+00
(PID.TID 0000.0001) %MON forcing_empmr_min            =   0.00000000000000000E+00
(PID.TID 0000.0001) %MON forcing_empmr_mean           =   0.00000000000000000E+00
(PID.TID 0000.0001) %MON forcing_empmr_sd             =   0.00000000000000000E+00
(PID.TID 0000.0001) %MON forcing_empmr_del2           =   0.00000000000000000E+00
(PID.TID 0000.0001) %MON forcing_fu_max               =   0.00000000000000000E+00
(PID.TID 0000.0001) %MON forcing_fu_min               =   0.00000000000000000E+00
(PID.TID 0000.0001) %MON forcing_fu_mean              =   0.00000000000000000E+00
(PID.TID 0000.0001) %MON forcing_fu_sd                =   0.00000000000000000E+00
(PID.TID 0000.0001) %MON forcing_fu_del2              =   0.00000000000000000E+00
(PID.TID 0000.0001) %MON forcing_fv_max               =   0.00000000000000000E+00
(PID.TID 0000.0001) %MON forcing_fv_min               =   0.00000000000000000E+00
(PID.TID 0000.0001) %MON forcing_fv_mean              =   0.00000000000000000E+00
(PID.TID 0000.0001) %MON forcing_fv_sd                =   0.00000000000000000E+00
(PID.TID 0000.0001) %MON forcing_fv_del2              =   0.00000000000000000E+00
(PID.TID 0000.0001) %MON advcfl_uvel_max              =   0.00000000000000000E+00
(PID.TID 0000.0001) %MON advcfl_vvel_max              =   0.00000000000000000E+00
(PID.TID 0000.0001) %MON advcfl_wvel_max              =   0.00000000000000000E+00
(PID.TID 0000.0001) %MON advcfl_W_hf_max              =   0.00000000000000000E+00
(PID.TID 0000.0001) %MON pe_b_mean                    =   0.00000000000000000E+00
(PID.TID 0000.0001) %MON ke_max                       =   0.00000000000000000E+00
(PID.TID 0000.0001) %MON ke_mean                      =   0.00000000000000000E+00
(PID.TID 0000.0001) %MON ke_vol                       =   4.11997678834846094E+13
(PID.TID 0000.0001) %MON vort_r_min                   =   0.00000000000000000E+00
(PID.TID 0000.0001) %MON vort_r_max                   =   0.00000000000000000E+00
(PID.TID 0000.0001) %MON vort_a_mean                  =  -4.50678018366247268E-05
(PID.TID 0000.0001) %MON vort_a_sd                    =  -4.13590306276513837E-25
(PID.TID 0000.0001) %MON vort_p_mean                  =  -4.50678018366247268E-05
(PID.TID 0000.0001) %MON vort_p_sd                    =   0.00000000000000000E+00
(PID.TID 0000.0001) %MON surfExpan_theta_mean         =   0.00000000000000000E+00
(PID.TID 0000.0001) %MON surfExpan_salt_mean          =   0.00000000000000000E+00
(PID.TID 0000.0001) // =======================================================
(PID.TID 0000.0001) // End MONITOR dynamic field statistics
(PID.TID 0000.0001) // =======================================================
(PID.TID 0000.0001) // =======================================================
(PID.TID 0000.0001) // Begin MONITOR ptracer field statistics
(PID.TID 0000.0001) // =======================================================
(PID.TID 0000.0001) %MON trcstat_ptracer01_max        =   2.00000000000012528E+03
(PID.TID 0000.0001) %MON trcstat_ptracer01_min        =   1.99999954297988165E+03
(PID.TID 0000.0001) %MON trcstat_ptracer01_mean       =   1.99999998707521718E+03
(PID.TID 0000.0001) %MON trcstat_ptracer01_sd         =   7.04980743564060844E-05
(PID.TID 0000.0001) %MON trcstat_ptracer01_del2       =   0.00000000000000000E+00
(PID.TID 0000.0001) %MON trcstat_ptracer02_max        =   2.56111923453903496E-02
(PID.TID 0000.0001) %MON trcstat_ptracer02_min        =   1.87648479938467299E-07
(PID.TID 0000.0001) %MON trcstat_ptracer02_mean       =   6.03996204856411222E-04
(PID.TID 0000.0001) %MON trcstat_ptracer02_sd         =   3.24853292849123891E-03
(PID.TID 0000.0001) %MON trcstat_ptracer02_del2       =   0.00000000000000000E+00
(PID.TID 0000.0001) %MON trcstat_ptracer03_max        =   1.83779449121119383E-02
(PID.TID 0000.0001) %MON trcstat_ptracer03_min        =   3.87862240395803796E-06
(PID.TID 0000.0001) %MON trcstat_ptracer03_mean       =   6.04979369625735790E-04
(PID.TID 0000.0001) %MON trcstat_ptracer03_sd         =   1.94637431768827939E-03
(PID.TID 0000.0001) %MON trcstat_ptracer03_del2       =   0.00000000000000000E+00
(PID.TID 0000.0001) %MON trcstat_ptracer04_max        =   3.39034962910997208E+01
(PID.TID 0000.0001) %MON trcstat_ptracer04_min        =   4.64709595704444756E-02
(PID.TID 0000.0001) %MON trcstat_ptracer04_mean       =   2.35023923409087132E+01
(PID.TID 0000.0001) %MON trcstat_ptracer04_sd         =   7.81619494284837479E+00
(PID.TID 0000.0001) %MON trcstat_ptracer04_del2       =   0.00000000000000000E+00
(PID.TID 0000.0001) %MON trcstat_ptracer05_max        =   2.24369983578503707E+00
(PID.TID 0000.0001) %MON trcstat_ptracer05_min        =   2.10252929396346627E-01
(PID.TID 0000.0001) %MON trcstat_ptracer05_mean       =   1.58213394813138986E+00
(PID.TID 0000.0001) %MON trcstat_ptracer05_sd         =   4.67350090556189757E-01
(PID.TID 0000.0001) %MON trcstat_ptracer05_del2       =   0.00000000000000000E+00
(PID.TID 0000.0001) %MON trcstat_ptracer06_max        =   3.93874011150924090E+01
(PID.TID 0000.0001) %MON trcstat_ptracer06_min        =   1.22479280298570004E+00
(PID.TID 0000.0001) %MON trcstat_ptracer06_mean       =   2.96218898122887637E+01
(PID.TID 0000.0001) %MON trcstat_ptracer06_sd         =   1.12705854692120297E+01
(PID.TID 0000.0001) %MON trcstat_ptracer06_del2       =   0.00000000000000000E+00
(PID.TID 0000.0001) %MON trcstat_ptracer07_max        =   1.30025998448135647E-03
(PID.TID 0000.0001) %MON trcstat_ptracer07_min        =   1.29997078429166363E-03
(PID.TID 0000.0001) %MON trcstat_ptracer07_mean       =   1.29997180904827762E-03
(PID.TID 0000.0001) %MON trcstat_ptracer07_sd         =   1.54419824345952587E-08
(PID.TID 0000.0001) %MON trcstat_ptracer07_del2       =   0.00000000000000000E+00
(PID.TID 0000.0001) %MON trcstat_ptracer08_max        =   3.78782071589175593E-04
(PID.TID 0000.0001) %MON trcstat_ptracer08_min        =   5.91606792659974409E-37
(PID.TID 0000.0001) %MON trcstat_ptracer08_mean       =   1.12939999441624249E-05
(PID.TID 0000.0001) %MON trcstat_ptracer08_sd         =   5.92134178479259617E-05
(PID.TID 0000.0001) %MON trcstat_ptracer08_del2       =   0.00000000000000000E+00
(PID.TID 0000.0001) %MON trcstat_ptracer09_max        =   8.17960245047610335E-02
(PID.TID 0000.0001) %MON trcstat_ptracer09_min        =   1.44119970170151788E-33
(PID.TID 0000.0001) %MON trcstat_ptracer09_mean       =   3.43440799938823319E-03
(PID.TID 0000.0001) %MON trcstat_ptracer09_sd         =   1.47858391860246751E-02
(PID.TID 0000.0001) %MON trcstat_ptracer09_del2       =   0.00000000000000000E+00
(PID.TID 0000.0001) %MON trcstat_ptracer10_max        =   5.11225153154756459E-03
(PID.TID 0000.0001) %MON trcstat_ptracer10_min        =   9.00749813563448673E-35
(PID.TID 0000.0001) %MON trcstat_ptracer10_mean       =   2.14650499961764574E-04
(PID.TID 0000.0001) %MON trcstat_ptracer10_sd         =   9.24114949126542194E-04
(PID.TID 0000.0001) %MON trcstat_ptracer10_del2       =   0.00000000000000000E+00
(PID.TID 0000.0001) %MON trcstat_ptracer11_max        =   5.11225117228350581E-06
(PID.TID 0000.0001) %MON trcstat_ptracer11_min        =   9.00748459917971301E-38
(PID.TID 0000.0001) %MON trcstat_ptracer11_mean       =   2.14650500268012627E-07
(PID.TID 0000.0001) %MON trcstat_ptracer11_sd         =   9.24114948784786703E-07
(PID.TID 0000.0001) %MON trcstat_ptracer11_del2       =   0.00000000000000000E+00
(PID.TID 0000.0001) %MON trcstat_ptracer12_max        =   1.93738611671100700E-04
(PID.TID 0000.0001) %MON trcstat_ptracer12_min        =   1.30132028345529049E-33
(PID.TID 0000.0001) %MON trcstat_ptracer12_mean       =   5.77779267567592613E-06
(PID.TID 0000.0001) %MON trcstat_ptracer12_sd         =   3.02540227757031361E-05
(PID.TID 0000.0001) %MON trcstat_ptracer12_del2       =   0.00000000000000000E+00
(PID.TID 0000.0001) %MON trcstat_ptracer13_max        =   4.35195364312140637E-03
(PID.TID 0000.0001) %MON trcstat_ptracer13_min        =   1.87978735445421110E-05
(PID.TID 0000.0001) %MON trcstat_ptracer13_mean       =   1.26157574388863713E-03
(PID.TID 0000.0001) %MON trcstat_ptracer13_sd         =   1.54387656421987440E-03
(PID.TID 0000.0001) %MON trcstat_ptracer13_del2       =   0.00000000000000000E+00
(PID.TID 0000.0001) %MON trcstat_ptracer14_max        =   2.71997102695087898E-04
(PID.TID 0000.0001) %MON trcstat_ptracer14_min        =   1.17486709653388194E-06
(PID.TID 0000.0001) %MON trcstat_ptracer14_mean       =   7.88484839930398204E-05
(PID.TID 0000.0001) %MON trcstat_ptracer14_sd         =   9.64922852637421498E-05
(PID.TID 0000.0001) %MON trcstat_ptracer14_del2       =   0.00000000000000000E+00
(PID.TID 0000.0001) %MON trcstat_ptracer15_max        =   1.62460734382691326E-02
(PID.TID 0000.0001) %MON trcstat_ptracer15_min        =   1.13918809966247073E-03
(PID.TID 0000.0001) %MON trcstat_ptracer15_mean       =   5.48843910823099048E-03
(PID.TID 0000.0001) %MON trcstat_ptracer15_sd         =   5.16992829344346035E-03
(PID.TID 0000.0001) %MON trcstat_ptracer15_del2       =   0.00000000000000000E+00
(PID.TID 0000.0001) %MON trcstat_ptracer16_max        =   2.71997118527823050E-07
(PID.TID 0000.0001) %MON trcstat_ptracer16_min        =   1.17486696799549885E-09
(PID.TID 0000.0001) %MON trcstat_ptracer16_mean       =   7.88484845187824159E-08
(PID.TID 0000.0001) %MON trcstat_ptracer16_sd         =   9.64922873200252174E-08
(PID.TID 0000.0001) %MON trcstat_ptracer16_del2       =   0.00000000000000000E+00
(PID.TID 0000.0001) %MON trcstat_ptracer17_max        =   0.00000000000000000E+00
(PID.TID 0000.0001) %MON trcstat_ptracer17_min        =   0.00000000000000000E+00
(PID.TID 0000.0001) %MON trcstat_ptracer17_mean       =   0.00000000000000000E+00
(PID.TID 0000.0001) %MON trcstat_ptracer17_sd         =   0.00000000000000000E+00
(PID.TID 0000.0001) %MON trcstat_ptracer17_del2       =   0.00000000000000000E+00
(PID.TID 0000.0001) %MON trcstat_ptracer18_max        =   8.78472876465284072E-04
(PID.TID 0000.0001) %MON trcstat_ptracer18_min        =   8.34356966798058403E-32
(PID.TID 0000.0001) %MON trcstat_ptracer18_mean       =   2.62455556062064897E-05
(PID.TID 0000.0001) %MON trcstat_ptracer18_sd         =   1.37480932402432381E-04
(PID.TID 0000.0001) %MON trcstat_ptracer18_del2       =   0.00000000000000000E+00
(PID.TID 0000.0001) %MON trcstat_ptracer19_max        =   8.98854813760186768E-04
(PID.TID 0000.0001) %MON trcstat_ptracer19_min        =   8.34356966798058403E-32
(PID.TID 0000.0001) %MON trcstat_ptracer19_mean       =   2.67285325000651967E-05
(PID.TID 0000.0001) %MON trcstat_ptracer19_sd         =   1.40332985838933312E-04
(PID.TID 0000.0001) %MON trcstat_ptracer19_del2       =   0.00000000000000000E+00
(PID.TID 0000.0001) %MON trcstat_ptracer20_max        =   8.74194591219629473E-04
(PID.TID 0000.0001) %MON trcstat_ptracer20_min        =   1.96936229113861204E-36
(PID.TID 0000.0001) %MON trcstat_ptracer20_mean       =   2.60663153267232837E-05
(PID.TID 0000.0001) %MON trcstat_ptracer20_sd         =   1.36659558591852698E-04
(PID.TID 0000.0001) %MON trcstat_ptracer20_del2       =   0.00000000000000000E+00
(PID.TID 0000.0001) %MON trcstat_ptracer21_max        =   8.86738439862517808E-04
(PID.TID 0000.0001) %MON trcstat_ptracer21_min        =   1.96936229113861204E-36
(PID.TID 0000.0001) %MON trcstat_ptracer21_mean       =   2.64232541529478439E-05
(PID.TID 0000.0001) %MON trcstat_ptracer21_sd         =   1.38642522515280194E-04
(PID.TID 0000.0001) %MON trcstat_ptracer21_del2       =   0.00000000000000000E+00
(PID.TID 0000.0001) %MON trcstat_ptracer22_max        =   8.92912239903610912E-04
(PID.TID 0000.0001) %MON trcstat_ptracer22_min        =   8.34356966798058403E-32
(PID.TID 0000.0001) %MON trcstat_ptracer22_mean       =   2.65731295693762391E-05
(PID.TID 0000.0001) %MON trcstat_ptracer22_sd         =   1.39443463520883649E-04
(PID.TID 0000.0001) %MON trcstat_ptracer22_del2       =   0.00000000000000000E+00
(PID.TID 0000.0001) %MON trcstat_ptracer23_max        =   8.74194591219675118E-04
(PID.TID 0000.0001) %MON trcstat_ptracer23_min        =   1.96936229113861204E-36
(PID.TID 0000.0001) %MON trcstat_ptracer23_mean       =   2.60663153267246965E-05
(PID.TID 0000.0001) %MON trcstat_ptracer23_sd         =   1.36659558591860261E-04
(PID.TID 0000.0001) %MON trcstat_ptracer23_del2       =   0.00000000000000000E+00
(PID.TID 0000.0001) %MON trcstat_ptracer24_max        =   8.87258626657107426E-04
(PID.TID 0000.0001) %MON trcstat_ptracer24_min        =   1.96936229113861204E-36
(PID.TID 0000.0001) %MON trcstat_ptracer24_mean       =   2.64588437305958266E-05
(PID.TID 0000.0001) %MON trcstat_ptracer24_sd         =   1.38799458676074793E-04
(PID.TID 0000.0001) %MON trcstat_ptracer24_del2       =   0.00000000000000000E+00
(PID.TID 0000.0001) %MON trcstat_ptracer25_max        =   8.82718764906903659E-04
(PID.TID 0000.0001) %MON trcstat_ptracer25_min        =   1.96936229113861204E-36
(PID.TID 0000.0001) %MON trcstat_ptracer25_mean       =   2.62628212427239245E-05
(PID.TID 0000.0001) %MON trcstat_ptracer25_sd         =   1.37835257378163538E-04
(PID.TID 0000.0001) %MON trcstat_ptracer25_del2       =   0.00000000000000000E+00
(PID.TID 0000.0001) %MON trcstat_ptracer26_max        =   8.74194591219725858E-04
(PID.TID 0000.0001) %MON trcstat_ptracer26_min        =   1.96936229113861204E-36
(PID.TID 0000.0001) %MON trcstat_ptracer26_mean       =   2.60663904892894368E-05
(PID.TID 0000.0001) %MON trcstat_ptracer26_sd         =   1.36659549788889295E-04
(PID.TID 0000.0001) %MON trcstat_ptracer26_del2       =   0.00000000000000000E+00
(PID.TID 0000.0001) %MON trcstat_ptracer27_max        =   8.84851540555733613E-04
(PID.TID 0000.0001) %MON trcstat_ptracer27_min        =   1.96936229113861204E-36
(PID.TID 0000.0001) %MON trcstat_ptracer27_mean       =   2.63698153324645693E-05
(PID.TID 0000.0001) %MON trcstat_ptracer27_sd         =   1.38361588518047133E-04
(PID.TID 0000.0001) %MON trcstat_ptracer27_del2       =   0.00000000000000000E+00
(PID.TID 0000.0001) %MON trcstat_ptracer28_max        =   8.74157692432514510E-04
(PID.TID 0000.0001) %MON trcstat_ptracer28_min        =   8.34356966798056104E-32
(PID.TID 0000.0001) %MON trcstat_ptracer28_mean       =   2.60663153267244864E-05
(PID.TID 0000.0001) %MON trcstat_ptracer28_sd         =   1.36624726081068030E-04
(PID.TID 0000.0001) %MON trcstat_ptracer28_del2       =   0.00000000000000000E+00
(PID.TID 0000.0001) %MON trcstat_ptracer29_max        =   8.87267832662315251E-04
(PID.TID 0000.0001) %MON trcstat_ptracer29_min        =   1.96936229113861204E-36
(PID.TID 0000.0001) %MON trcstat_ptracer29_mean       =   2.64531396937393733E-05
(PID.TID 0000.0001) %MON trcstat_ptracer29_sd         =   1.38696472936568815E-04
(PID.TID 0000.0001) %MON trcstat_ptracer29_del2       =   0.00000000000000000E+00
(PID.TID 0000.0001) %MON trcstat_ptracer30_max        =   8.95108693795009110E-04
(PID.TID 0000.0001) %MON trcstat_ptracer30_min        =   8.34356966798056104E-32
(PID.TID 0000.0001) %MON trcstat_ptracer30_mean       =   2.66350680438958538E-05
(PID.TID 0000.0001) %MON trcstat_ptracer30_sd         =   1.39765264499268463E-04
(PID.TID 0000.0001) %MON trcstat_ptracer30_del2       =   0.00000000000000000E+00
(PID.TID 0000.0001) %MON trcstat_ptracer31_max        =   8.74157692568207833E-04
(PID.TID 0000.0001) %MON trcstat_ptracer31_min        =   8.34356966798058403E-32
(PID.TID 0000.0001) %MON trcstat_ptracer31_mean       =   2.60663153305162599E-05
(PID.TID 0000.0001) %MON trcstat_ptracer31_sd         =   1.36624726101482988E-04
(PID.TID 0000.0001) %MON trcstat_ptracer31_del2       =   0.00000000000000000E+00
(PID.TID 0000.0001) %MON trcstat_ptracer32_max        =   8.74194591219561493E-04
(PID.TID 0000.0001) %MON trcstat_ptracer32_min        =   1.96936229113861204E-36
(PID.TID 0000.0001) %MON trcstat_ptracer32_mean       =   2.60663153267203360E-05
(PID.TID 0000.0001) %MON trcstat_ptracer32_sd         =   1.36659558591839525E-04
(PID.TID 0000.0001) %MON trcstat_ptracer32_del2       =   0.00000000000000000E+00
(PID.TID 0000.0001) %MON trcstat_ptracer33_max        =   8.74194591219602584E-04
(PID.TID 0000.0001) %MON trcstat_ptracer33_min        =   1.96936229113861204E-36
(PID.TID 0000.0001) %MON trcstat_ptracer33_mean       =   2.60663153267215286E-05
(PID.TID 0000.0001) %MON trcstat_ptracer33_sd         =   1.36659558591846139E-04
(PID.TID 0000.0001) %MON trcstat_ptracer33_del2       =   0.00000000000000000E+00
(PID.TID 0000.0001) %MON trcstat_ptracer34_max        =   8.74194591219579816E-04
(PID.TID 0000.0001) %MON trcstat_ptracer34_min        =   1.96936229113861204E-36
(PID.TID 0000.0001) %MON trcstat_ptracer34_mean       =   2.60663153267208747E-05
(PID.TID 0000.0001) %MON trcstat_ptracer34_sd         =   1.36659558591842453E-04
(PID.TID 0000.0001) %MON trcstat_ptracer34_del2       =   0.00000000000000000E+00
(PID.TID 0000.0001) %MON trcstat_ptracer35_max        =   8.74194591219632075E-04
(PID.TID 0000.0001) %MON trcstat_ptracer35_min        =   1.96936229113861204E-36
(PID.TID 0000.0001) %MON trcstat_ptracer35_mean       =   2.60663153267233650E-05
(PID.TID 0000.0001) %MON trcstat_ptracer35_sd         =   1.36659558591853159E-04
(PID.TID 0000.0001) %MON trcstat_ptracer35_del2       =   0.00000000000000000E+00
(PID.TID 0000.0001) %MON trcstat_ptracer36_max        =   8.74194591219826147E-04
(PID.TID 0000.0001) %MON trcstat_ptracer36_min        =   1.96936229113861204E-36
(PID.TID 0000.0001) %MON trcstat_ptracer36_mean       =   2.60663153267288775E-05
(PID.TID 0000.0001) %MON trcstat_ptracer36_sd         =   1.36659558591877499E-04
(PID.TID 0000.0001) %MON trcstat_ptracer36_del2       =   0.00000000000000000E+00
(PID.TID 0000.0001) %MON trcstat_ptracer37_max        =   8.80827947296315976E-04
(PID.TID 0000.0001) %MON trcstat_ptracer37_min        =   1.96936229113861204E-36
(PID.TID 0000.0001) %MON trcstat_ptracer37_mean       =   2.63094412292292008E-05
(PID.TID 0000.0001) %MON trcstat_ptracer37_sd         =   1.37888997425008274E-04
(PID.TID 0000.0001) %MON trcstat_ptracer37_del2       =   0.00000000000000000E+00
(PID.TID 0000.0001) %MON trcstat_ptracer38_max        =   8.74194591219816281E-04
(PID.TID 0000.0001) %MON trcstat_ptracer38_min        =   1.96936229113861204E-36
(PID.TID 0000.0001) %MON trcstat_ptracer38_mean       =   2.60663153267285895E-05
(PID.TID 0000.0001) %MON trcstat_ptracer38_sd         =   1.36659558591875927E-04
(PID.TID 0000.0001) %MON trcstat_ptracer38_del2       =   0.00000000000000000E+00
(PID.TID 0000.0001) %MON trcstat_ptracer39_max        =   8.74157692432850179E-04
(PID.TID 0000.0001) %MON trcstat_ptracer39_min        =   8.34356966798056104E-32
(PID.TID 0000.0001) %MON trcstat_ptracer39_mean       =   2.60663153267344645E-05
(PID.TID 0000.0001) %MON trcstat_ptracer39_sd         =   1.36624726081120262E-04
(PID.TID 0000.0001) %MON trcstat_ptracer39_del2       =   0.00000000000000000E+00
(PID.TID 0000.0001) %MON trcstat_ptracer40_max        =   8.83753187982697043E-04
(PID.TID 0000.0001) %MON trcstat_ptracer40_min        =   1.96936229113861204E-36
(PID.TID 0000.0001) %MON trcstat_ptracer40_mean       =   2.63667887645139169E-05
(PID.TID 0000.0001) %MON trcstat_ptracer40_sd         =   1.38201128162942946E-04
(PID.TID 0000.0001) %MON trcstat_ptracer40_del2       =   0.00000000000000000E+00
(PID.TID 0000.0001) %MON trcstat_ptracer41_max        =   8.74157692568208701E-04
(PID.TID 0000.0001) %MON trcstat_ptracer41_min        =   8.34356966798058403E-32
(PID.TID 0000.0001) %MON trcstat_ptracer41_mean       =   2.60663153305162904E-05
(PID.TID 0000.0001) %MON trcstat_ptracer41_sd         =   1.36624726101483123E-04
(PID.TID 0000.0001) %MON trcstat_ptracer41_del2       =   0.00000000000000000E+00
(PID.TID 0000.0001) %MON trcstat_ptracer42_max        =   8.74157692432702186E-04
(PID.TID 0000.0001) %MON trcstat_ptracer42_min        =   8.34356966798056104E-32
(PID.TID 0000.0001) %MON trcstat_ptracer42_mean       =   2.60665365158156383E-05
(PID.TID 0000.0001) %MON trcstat_ptracer42_sd         =   1.36624702884018768E-04
(PID.TID 0000.0001) %MON trcstat_ptracer42_del2       =   0.00000000000000000E+00
(PID.TID 0000.0001) %MON trcstat_ptracer43_max        =   8.75582611186429775E-04
(PID.TID 0000.0001) %MON trcstat_ptracer43_min        =   8.34356966798056104E-32
(PID.TID 0000.0001) %MON trcstat_ptracer43_mean       =   2.61682462429734512E-05
(PID.TID 0000.0001) %MON trcstat_ptracer43_sd         =   1.37058204124469133E-04
(PID.TID 0000.0001) %MON trcstat_ptracer43_del2       =   0.00000000000000000E+00
(PID.TID 0000.0001) %MON trcstat_ptracer44_max        =   8.87701703113402099E-04
(PID.TID 0000.0001) %MON trcstat_ptracer44_min        =   1.96936229113861204E-36
(PID.TID 0000.0001) %MON trcstat_ptracer44_mean       =   2.64503203438796196E-05
(PID.TID 0000.0001) %MON trcstat_ptracer44_sd         =   1.38792883962319868E-04
(PID.TID 0000.0001) %MON trcstat_ptracer44_del2       =   0.00000000000000000E+00
(PID.TID 0000.0001) %MON trcstat_ptracer45_max        =   8.74157692568112640E-04
(PID.TID 0000.0001) %MON trcstat_ptracer45_min        =   8.34356966798058403E-32
(PID.TID 0000.0001) %MON trcstat_ptracer45_mean       =   2.60663153305134478E-05
(PID.TID 0000.0001) %MON trcstat_ptracer45_sd         =   1.36624726101468162E-04
(PID.TID 0000.0001) %MON trcstat_ptracer45_del2       =   0.00000000000000000E+00
(PID.TID 0000.0001) %MON trcstat_ptracer46_max        =   8.79017643915378107E-04
(PID.TID 0000.0001) %MON trcstat_ptracer46_min        =   1.96936229113861204E-36
(PID.TID 0000.0001) %MON trcstat_ptracer46_mean       =   2.62397164299497830E-05
(PID.TID 0000.0001) %MON trcstat_ptracer46_sd         =   1.37527689230066194E-04
(PID.TID 0000.0001) %MON trcstat_ptracer46_del2       =   0.00000000000000000E+00
(PID.TID 0000.0001) %MON trcstat_ptracer47_max        =   8.74157692432576960E-04
(PID.TID 0000.0001) %MON trcstat_ptracer47_min        =   8.34356966798056104E-32
(PID.TID 0000.0001) %MON trcstat_ptracer47_mean       =   2.60663153267263499E-05
(PID.TID 0000.0001) %MON trcstat_ptracer47_sd         =   1.36624726081077734E-04
(PID.TID 0000.0001) %MON trcstat_ptracer47_del2       =   0.00000000000000000E+00
(PID.TID 0000.0001) %MON trcstat_ptracer48_max        =   8.74554299664322913E-04
(PID.TID 0000.0001) %MON trcstat_ptracer48_min        =   1.96936229113861204E-36
(PID.TID 0000.0001) %MON trcstat_ptracer48_mean       =   2.61409306704025401E-05
(PID.TID 0000.0001) %MON trcstat_ptracer48_sd         =   1.36967424647074332E-04
(PID.TID 0000.0001) %MON trcstat_ptracer48_del2       =   0.00000000000000000E+00
(PID.TID 0000.0001) %MON trcstat_ptracer49_max        =   8.89438458172922769E-04
(PID.TID 0000.0001) %MON trcstat_ptracer49_min        =   1.96936229113861204E-36
(PID.TID 0000.0001) %MON trcstat_ptracer49_mean       =   2.65073155828250688E-05
(PID.TID 0000.0001) %MON trcstat_ptracer49_sd         =   1.39094597451281217E-04
(PID.TID 0000.0001) %MON trcstat_ptracer49_del2       =   0.00000000000000000E+00
(PID.TID 0000.0001) %MON trcstat_ptracer50_max        =   8.74157692432514727E-04
(PID.TID 0000.0001) %MON trcstat_ptracer50_min        =   8.34356966798056104E-32
(PID.TID 0000.0001) %MON trcstat_ptracer50_mean       =   2.60663377415567245E-05
(PID.TID 0000.0001) %MON trcstat_ptracer50_sd         =   1.36624722756789298E-04
(PID.TID 0000.0001) %MON trcstat_ptracer50_del2       =   0.00000000000000000E+00
(PID.TID 0000.0001) %MON trcstat_ptracer51_max        =   8.74194591220136879E-04
(PID.TID 0000.0001) %MON trcstat_ptracer51_min        =   1.96936229113861204E-36
(PID.TID 0000.0001) %MON trcstat_ptracer51_mean       =   2.60663153267379814E-05
(PID.TID 0000.0001) %MON trcstat_ptracer51_sd         =   1.36659558591925936E-04
(PID.TID 0000.0001) %MON trcstat_ptracer51_del2       =   0.00000000000000000E+00
(PID.TID 0000.0001) %MON trcstat_ptracer52_max        =   8.92182937380169407E-04
(PID.TID 0000.0001) %MON trcstat_ptracer52_min        =   8.34356966798056104E-32
(PID.TID 0000.0001) %MON trcstat_ptracer52_mean       =   2.65625585332777513E-05
(PID.TID 0000.0001) %MON trcstat_ptracer52_sd         =   1.39368760985531654E-04
(PID.TID 0000.0001) %MON trcstat_ptracer52_del2       =   0.00000000000000000E+00
(PID.TID 0000.0001) %MON trcstat_ptracer53_max        =   8.74157692568061574E-04
(PID.TID 0000.0001) %MON trcstat_ptracer53_min        =   8.34356966798058403E-32
(PID.TID 0000.0001) %MON trcstat_ptracer53_mean       =   2.60663153305119434E-05
(PID.TID 0000.0001) %MON trcstat_ptracer53_sd         =   1.36624726101460193E-04
(PID.TID 0000.0001) %MON trcstat_ptracer53_del2       =   0.00000000000000000E+00
(PID.TID 0000.0001) %MON trcstat_ptracer54_max        =   8.95361713458335171E-04
(PID.TID 0000.0001) %MON trcstat_ptracer54_min        =   8.34356966798056104E-32
(PID.TID 0000.0001) %MON trcstat_ptracer54_mean       =   2.66365751041670751E-05
(PID.TID 0000.0001) %MON trcstat_ptracer54_sd         =   1.39814260927691739E-04
(PID.TID 0000.0001) %MON trcstat_ptracer54_del2       =   0.00000000000000000E+00
(PID.TID 0000.0001) %MON trcstat_ptracer55_max        =   8.84805993848473255E-04
(PID.TID 0000.0001) %MON trcstat_ptracer55_min        =   1.96936229113861204E-36
(PID.TID 0000.0001) %MON trcstat_ptracer55_mean       =   2.63909071296482190E-05
(PID.TID 0000.0001) %MON trcstat_ptracer55_sd         =   1.38358380055199489E-04
(PID.TID 0000.0001) %MON trcstat_ptracer55_del2       =   0.00000000000000000E+00
(PID.TID 0000.0001) %MON trcstat_ptracer56_max        =   8.74194591219638146E-04
(PID.TID 0000.0001) %MON trcstat_ptracer56_min        =   1.96936229113861204E-36
(PID.TID 0000.0001) %MON trcstat_ptracer56_mean       =   2.60663153267235479E-05
(PID.TID 0000.0001) %MON trcstat_ptracer56_sd         =   1.36659558591854135E-04
(PID.TID 0000.0001) %MON trcstat_ptracer56_del2       =   0.00000000000000000E+00
(PID.TID 0000.0001) %MON trcstat_ptracer57_max        =   8.92902409505070042E-04
(PID.TID 0000.0001) %MON trcstat_ptracer57_min        =   8.34356966798058403E-32
(PID.TID 0000.0001) %MON trcstat_ptracer57_mean       =   2.65787463137246586E-05
(PID.TID 0000.0001) %MON trcstat_ptracer57_sd         =   1.39465216182711130E-04
(PID.TID 0000.0001) %MON trcstat_ptracer57_del2       =   0.00000000000000000E+00
(PID.TID 0000.0001) %MON trcstat_ptracer58_max        =   8.74157692568245347E-04
(PID.TID 0000.0001) %MON trcstat_ptracer58_min        =   8.34356966798058403E-32
(PID.TID 0000.0001) %MON trcstat_ptracer58_mean       =   2.60663153305173712E-05
(PID.TID 0000.0001) %MON trcstat_ptracer58_sd         =   1.36624726101488816E-04
(PID.TID 0000.0001) %MON trcstat_ptracer58_del2       =   0.00000000000000000E+00
(PID.TID 0000.0001) %MON trcstat_ptracer59_max        =   8.74194591219852818E-04
(PID.TID 0000.0001) %MON trcstat_ptracer59_min        =   1.96936229113861204E-36
(PID.TID 0000.0001) %MON trcstat_ptracer59_mean       =   2.60663153267296601E-05
(PID.TID 0000.0001) %MON trcstat_ptracer59_sd         =   1.36659558591881674E-04
(PID.TID 0000.0001) %MON trcstat_ptracer59_del2       =   0.00000000000000000E+00
(PID.TID 0000.0001) %MON trcstat_ptracer60_max        =   8.90168303181514717E-04
(PID.TID 0000.0001) %MON trcstat_ptracer60_min        =   1.96936229113861204E-36
(PID.TID 0000.0001) %MON trcstat_ptracer60_mean       =   2.65030308343851823E-05
(PID.TID 0000.0001) %MON trcstat_ptracer60_sd         =   1.39049383358668435E-04
(PID.TID 0000.0001) %MON trcstat_ptracer60_del2       =   0.00000000000000000E+00
(PID.TID 0000.0001) %MON trcstat_ptracer61_max        =   8.85688283618164146E-04
(PID.TID 0000.0001) %MON trcstat_ptracer61_min        =   1.96936229113861204E-36
(PID.TID 0000.0001) %MON trcstat_ptracer61_mean       =   2.64072690691892042E-05
(PID.TID 0000.0001) %MON trcstat_ptracer61_sd         =   1.38518723227163749E-04
(PID.TID 0000.0001) %MON trcstat_ptracer61_del2       =   0.00000000000000000E+00
(PID.TID 0000.0001) %MON trcstat_ptracer62_max        =   8.74157692432616751E-04
(PID.TID 0000.0001) %MON trcstat_ptracer62_min        =   8.34356966798056104E-32
(PID.TID 0000.0001) %MON trcstat_ptracer62_mean       =   2.60663153267275358E-05
(PID.TID 0000.0001) %MON trcstat_ptracer62_sd         =   1.36624726081083941E-04
(PID.TID 0000.0001) %MON trcstat_ptracer62_del2       =   0.00000000000000000E+00
(PID.TID 0000.0001) %MON trcstat_ptracer63_max        =   8.79650585992926108E-04
(PID.TID 0000.0001) %MON trcstat_ptracer63_min        =   8.34356966798058403E-32
(PID.TID 0000.0001) %MON trcstat_ptracer63_mean       =   2.62768886428280654E-05
(PID.TID 0000.0001) %MON trcstat_ptracer63_sd         =   1.37639265564988187E-04
(PID.TID 0000.0001) %MON trcstat_ptracer63_del2       =   0.00000000000000000E+00
(PID.TID 0000.0001) %MON trcstat_ptracer64_max        =   8.74194591219718269E-04
(PID.TID 0000.0001) %MON trcstat_ptracer64_min        =   1.96936229113861204E-36
(PID.TID 0000.0001) %MON trcstat_ptracer64_mean       =   2.60663153267256960E-05
(PID.TID 0000.0001) %MON trcstat_ptracer64_sd         =   1.36659558591860694E-04
(PID.TID 0000.0001) %MON trcstat_ptracer64_del2       =   0.00000000000000000E+00
(PID.TID 0000.0001) %MON trcstat_ptracer65_max        =   8.91775008216900067E-04
(PID.TID 0000.0001) %MON trcstat_ptracer65_min        =   8.34356966798058403E-32
(PID.TID 0000.0001) %MON trcstat_ptracer65_mean       =   2.65414737136278934E-05
(PID.TID 0000.0001) %MON trcstat_ptracer65_sd         =   1.39273362212158250E-04
(PID.TID 0000.0001) %MON trcstat_ptracer65_del2       =   0.00000000000000000E+00
(PID.TID 0000.0001) %MON trcstat_ptracer66_max        =   8.74157692432607426E-04
(PID.TID 0000.0001) %MON trcstat_ptracer66_min        =   8.34356966798056104E-32
(PID.TID 0000.0001) %MON trcstat_ptracer66_mean       =   2.60663847634936973E-05
(PID.TID 0000.0001) %MON trcstat_ptracer66_sd         =   1.36624717011553522E-04
(PID.TID 0000.0001) %MON trcstat_ptracer66_del2       =   0.00000000000000000E+00
(PID.TID 0000.0001) %MON trcstat_ptracer67_max        =   8.77308310828061135E-04
(PID.TID 0000.0001) %MON trcstat_ptracer67_min        =   8.34356966798056104E-32
(PID.TID 0000.0001) %MON trcstat_ptracer67_mean       =   2.62115791299369420E-05
(PID.TID 0000.0001) %MON trcstat_ptracer67_sd         =   1.37284258400646064E-04
(PID.TID 0000.0001) %MON trcstat_ptracer67_del2       =   0.00000000000000000E+00
(PID.TID 0000.0001) %MON trcstat_ptracer68_max        =   8.74157692568009533E-04
(PID.TID 0000.0001) %MON trcstat_ptracer68_min        =   8.34356966798058403E-32
(PID.TID 0000.0001) %MON trcstat_ptracer68_mean       =   2.60663153305103985E-05
(PID.TID 0000.0001) %MON trcstat_ptracer68_sd         =   1.36624726101452115E-04
(PID.TID 0000.0001) %MON trcstat_ptracer68_del2       =   0.00000000000000000E+00
(PID.TID 0000.0001) %MON trcstat_ptracer69_max        =   8.87457498629549133E-04
(PID.TID 0000.0001) %MON trcstat_ptracer69_min        =   1.96936229113861204E-36
(PID.TID 0000.0001) %MON trcstat_ptracer69_mean       =   2.64505457800401696E-05
(PID.TID 0000.0001) %MON trcstat_ptracer69_sd         =   1.38769692968100747E-04
(PID.TID 0000.0001) %MON trcstat_ptracer69_del2       =   0.00000000000000000E+00
(PID.TID 0000.0001) %MON trcstat_ptracer70_max        =   8.96370208398428029E-04
(PID.TID 0000.0001) %MON trcstat_ptracer70_min        =   8.34356966798058403E-32
(PID.TID 0000.0001) %MON trcstat_ptracer70_mean       =   2.66490675076385429E-05
(PID.TID 0000.0001) %MON trcstat_ptracer70_sd         =   1.39908134825344278E-04
(PID.TID 0000.0001) %MON trcstat_ptracer70_del2       =   0.00000000000000000E+00
(PID.TID 0000.0001) %MON trcstat_ptracer71_max        =   8.90377434253424266E-04
(PID.TID 0000.0001) %MON trcstat_ptracer71_min        =   8.34356966798058403E-32
(PID.TID 0000.0001) %MON trcstat_ptracer71_mean       =   2.65173756653583353E-05
(PID.TID 0000.0001) %MON trcstat_ptracer71_sd         =   1.39088694184180727E-04
(PID.TID 0000.0001) %MON trcstat_ptracer71_del2       =   0.00000000000000000E+00
(PID.TID 0000.0001) %MON trcstat_ptracer72_max        =   8.74194591219705800E-04
(PID.TID 0000.0001) %MON trcstat_ptracer72_min        =   1.96936229113861204E-36
(PID.TID 0000.0001) %MON trcstat_ptracer72_mean       =   2.60679858966606220E-05
(PID.TID 0000.0001) %MON trcstat_ptracer72_sd         =   1.36663584518183695E-04
(PID.TID 0000.0001) %MON trcstat_ptracer72_del2       =   0.00000000000000000E+00
(PID.TID 0000.0001) %MON trcstat_ptracer73_max        =   8.94475828486619956E-04
(PID.TID 0000.0001) %MON trcstat_ptracer73_min        =   8.34356966798056104E-32
(PID.TID 0000.0001) %MON trcstat_ptracer73_mean       =   2.66309632809306117E-05
(PID.TID 0000.0001) %MON trcstat_ptracer73_sd         =   1.39708033024180719E-04
(PID.TID 0000.0001) %MON trcstat_ptracer73_del2       =   0.00000000000000000E+00
(PID.TID 0000.0001) %MON trcstat_ptracer74_max        =   8.82544174247895056E-04
(PID.TID 0000.0001) %MON trcstat_ptracer74_min        =   8.34356966798056104E-32
(PID.TID 0000.0001) %MON trcstat_ptracer74_mean       =   2.63523774975212161E-05
(PID.TID 0000.0001) %MON trcstat_ptracer74_sd         =   1.38066043186620488E-04
(PID.TID 0000.0001) %MON trcstat_ptracer74_del2       =   0.00000000000000000E+00
(PID.TID 0000.0001) %MON trcstat_ptracer75_max        =   8.74194591220037241E-04
(PID.TID 0000.0001) %MON trcstat_ptracer75_min        =   1.96936229113861204E-36
(PID.TID 0000.0001) %MON trcstat_ptracer75_mean       =   2.60663153267350710E-05
(PID.TID 0000.0001) %MON trcstat_ptracer75_sd         =   1.36659558591910378E-04
(PID.TID 0000.0001) %MON trcstat_ptracer75_del2       =   0.00000000000000000E+00
(PID.TID 0000.0001) %MON trcstat_ptracer76_max        =   8.87455504168418378E-04
(PID.TID 0000.0001) %MON trcstat_ptracer76_min        =   1.96936229113861204E-36
(PID.TID 0000.0001) %MON trcstat_ptracer76_mean       =   2.64347013274858469E-05
(PID.TID 0000.0001) %MON trcstat_ptracer76_sd         =   1.38733267422944671E-04
(PID.TID 0000.0001) %MON trcstat_ptracer76_del2       =   0.00000000000000000E+00
(PID.TID 0000.0001) %MON trcstat_ptracer77_max        =   8.74194591220138289E-04
(PID.TID 0000.0001) %MON trcstat_ptracer77_min        =   1.96936229113861204E-36
(PID.TID 0000.0001) %MON trcstat_ptracer77_mean       =   2.60663153267380153E-05
(PID.TID 0000.0001) %MON trcstat_ptracer77_sd         =   1.36659558591926153E-04
(PID.TID 0000.0001) %MON trcstat_ptracer77_del2       =   0.00000000000000000E+00
(PID.TID 0000.0001) %MON trcstat_ptracer78_max        =   8.74157692432848661E-04
(PID.TID 0000.0001) %MON trcstat_ptracer78_min        =   8.34356966798056104E-32
(PID.TID 0000.0001) %MON trcstat_ptracer78_mean       =   2.60663153267344171E-05
(PID.TID 0000.0001) %MON trcstat_ptracer78_sd         =   1.36624726081120072E-04
(PID.TID 0000.0001) %MON trcstat_ptracer78_del2       =   0.00000000000000000E+00
(PID.TID 0000.0001) %MON trcstat_ptracer79_max        =   8.74157692568286980E-04
(PID.TID 0000.0001) %MON trcstat_ptracer79_min        =   8.34356966798058403E-32
(PID.TID 0000.0001) %MON trcstat_ptracer79_mean       =   2.60663153305185876E-05
(PID.TID 0000.0001) %MON trcstat_ptracer79_sd         =   1.36624726101495267E-04
(PID.TID 0000.0001) %MON trcstat_ptracer79_del2       =   0.00000000000000000E+00
(PID.TID 0000.0001) %MON trcstat_ptracer80_max        =   8.74194591219667528E-04
(PID.TID 0000.0001) %MON trcstat_ptracer80_min        =   1.96936229113861204E-36
(PID.TID 0000.0001) %MON trcstat_ptracer80_mean       =   2.60690446726093284E-05
(PID.TID 0000.0001) %MON trcstat_ptracer80_sd         =   1.36662651559289717E-04
(PID.TID 0000.0001) %MON trcstat_ptracer80_del2       =   0.00000000000000000E+00
(PID.TID 0000.0001) %MON trcstat_ptracer81_max        =   8.74194591219779743E-04
(PID.TID 0000.0001) %MON trcstat_ptracer81_min        =   1.96936229113861204E-36
(PID.TID 0000.0001) %MON trcstat_ptracer81_mean       =   2.60663153267279288E-05
(PID.TID 0000.0001) %MON trcstat_ptracer81_sd         =   1.36659558591877635E-04
(PID.TID 0000.0001) %MON trcstat_ptracer81_del2       =   0.00000000000000000E+00
(PID.TID 0000.0001) %MON trcstat_ptracer82_max        =   8.74194591219971322E-04
(PID.TID 0000.0001) %MON trcstat_ptracer82_min        =   1.96936229113861204E-36
(PID.TID 0000.0001) %MON trcstat_ptracer82_mean       =   2.60663153267331397E-05
(PID.TID 0000.0001) %MON trcstat_ptracer82_sd         =   1.36659558591900105E-04
(PID.TID 0000.0001) %MON trcstat_ptracer82_del2       =   0.00000000000000000E+00
(PID.TID 0000.0001) %MON trcstat_ptracer83_max        =   8.74157692432593549E-04
(PID.TID 0000.0001) %MON trcstat_ptracer83_min        =   8.34356966798056104E-32
(PID.TID 0000.0001) %MON trcstat_ptracer83_mean       =   2.60663153267268480E-05
(PID.TID 0000.0001) %MON trcstat_ptracer83_sd         =   1.36624726081080336E-04
(PID.TID 0000.0001) %MON trcstat_ptracer83_del2       =   0.00000000000000000E+00
(PID.TID 0000.0001) %MON trcstat_ptracer84_max        =   8.74157692601642460E-04
(PID.TID 0000.0001) %MON trcstat_ptracer84_min        =   8.34356966798058403E-32
(PID.TID 0000.0001) %MON trcstat_ptracer84_mean       =   2.61027153489774736E-05
(PID.TID 0000.0001) %MON trcstat_ptracer84_sd         =   1.36742485036491223E-04
(PID.TID 0000.0001) %MON trcstat_ptracer84_del2       =   0.00000000000000000E+00
(PID.TID 0000.0001) %MON trcstat_ptracer85_max        =   8.74157692432726363E-04
(PID.TID 0000.0001) %MON trcstat_ptracer85_min        =   8.34356966798056104E-32
(PID.TID 0000.0001) %MON trcstat_ptracer85_mean       =   2.60664204359092972E-05
(PID.TID 0000.0001) %MON trcstat_ptracer85_sd         =   1.36624712598268572E-04
(PID.TID 0000.0001) %MON trcstat_ptracer85_del2       =   0.00000000000000000E+00
(PID.TID 0000.0001) %MON trcstat_ptracer86_max        =   8.74157692432560372E-04
(PID.TID 0000.0001) %MON trcstat_ptracer86_min        =   8.34356966798056104E-32
(PID.TID 0000.0001) %MON trcstat_ptracer86_mean       =   2.60663153267258586E-05
(PID.TID 0000.0001) %MON trcstat_ptracer86_sd         =   1.36624726081075186E-04
(PID.TID 0000.0001) %MON trcstat_ptracer86_del2       =   0.00000000000000000E+00
(PID.TID 0000.0001) %MON trcstat_ptracer87_max        =   8.84243611478999756E-04
(PID.TID 0000.0001) %MON trcstat_ptracer87_min        =   8.34356966798058403E-32
(PID.TID 0000.0001) %MON trcstat_ptracer87_mean       =   2.63688615897726842E-05
(PID.TID 0000.0001) %MON trcstat_ptracer87_sd         =   1.38216753547851728E-04
(PID.TID 0000.0001) %MON trcstat_ptracer87_del2       =   0.00000000000000000E+00
(PID.TID 0000.0001) %MON trcstat_ptracer88_max        =   8.89197424741892690E-04
(PID.TID 0000.0001) %MON trcstat_ptracer88_min        =   1.96936229113861204E-36
(PID.TID 0000.0001) %MON trcstat_ptracer88_mean       =   2.64639346605337772E-05
(PID.TID 0000.0001) %MON trcstat_ptracer88_sd         =   1.38851199494588955E-04
(PID.TID 0000.0001) %MON trcstat_ptracer88_del2       =   0.00000000000000000E+00
(PID.TID 0000.0001) %MON trcstat_ptracer89_max        =   8.74194591219774539E-04
(PID.TID 0000.0001) %MON trcstat_ptracer89_min        =   1.96936229113861204E-36
(PID.TID 0000.0001) %MON trcstat_ptracer89_mean       =   2.60663153267277729E-05
(PID.TID 0000.0001) %MON trcstat_ptracer89_sd         =   1.36659558591876768E-04
(PID.TID 0000.0001) %MON trcstat_ptracer89_del2       =   0.00000000000000000E+00
(PID.TID 0000.0001) %MON trcstat_ptracer90_max        =   8.74157692432593007E-04
(PID.TID 0000.0001) %MON trcstat_ptracer90_min        =   8.34356966798056104E-32
(PID.TID 0000.0001) %MON trcstat_ptracer90_mean       =   2.60665706359978835E-05
(PID.TID 0000.0001) %MON trcstat_ptracer90_sd         =   1.36624706439850396E-04
(PID.TID 0000.0001) %MON trcstat_ptracer90_del2       =   0.00000000000000000E+00
(PID.TID 0000.0001) %MON trcstat_ptracer91_max        =   8.74194591219688453E-04
(PID.TID 0000.0001) %MON trcstat_ptracer91_min        =   1.96936229113861204E-36
(PID.TID 0000.0001) %MON trcstat_ptracer91_mean       =   2.60664466034638469E-05
(PID.TID 0000.0001) %MON trcstat_ptracer91_sd         =   1.36659545511130863E-04
(PID.TID 0000.0001) %MON trcstat_ptracer91_del2       =   0.00000000000000000E+00
(PID.TID 0000.0001) %MON trcstat_ptracer92_max        =   8.86811800718106014E-04
(PID.TID 0000.0001) %MON trcstat_ptracer92_min        =   1.96936229113861204E-36
(PID.TID 0000.0001) %MON trcstat_ptracer92_mean       =   2.64447611681933448E-05
(PID.TID 0000.0001) %MON trcstat_ptracer92_sd         =   1.38723774078775437E-04
(PID.TID 0000.0001) %MON trcstat_ptracer92_del2       =   0.00000000000000000E+00
(PID.TID 0000.0001) %MON trcstat_ptracer93_max        =   8.74194591219673383E-04
(PID.TID 0000.0001) %MON trcstat_ptracer93_min        =   1.96936229113861204E-36
(PID.TID 0000.0001) %MON trcstat_ptracer93_mean       =   2.60704822586300395E-05
(PID.TID 0000.0001) %MON trcstat_ptracer93_sd         =   1.36665389175158063E-04
(PID.TID 0000.0001) %MON trcstat_ptracer93_del2       =   0.00000000000000000E+00
(PID.TID 0000.0001) %MON trcstat_ptracer94_max        =   8.86847800576167711E-04
(PID.TID 0000.0001) %MON trcstat_ptracer94_min        =   1.96936229113861204E-36
(PID.TID 0000.0001) %MON trcstat_ptracer94_mean       =   2.64233266062480901E-05
(PID.TID 0000.0001) %MON trcstat_ptracer94_sd         =   1.38668010913541929E-04
(PID.TID 0000.0001) %MON trcstat_ptracer94_del2       =   0.00000000000000000E+00
(PID.TID 0000.0001) %MON trcstat_ptracer95_max        =   8.74194591220057190E-04
(PID.TID 0000.0001) %MON trcstat_ptracer95_min        =   1.96936229113861204E-36
(PID.TID 0000.0001) %MON trcstat_ptracer95_mean       =   2.60663153267356503E-05
(PID.TID 0000.0001) %MON trcstat_ptracer95_sd         =   1.36659558591913522E-04
(PID.TID 0000.0001) %MON trcstat_ptracer95_del2       =   0.00000000000000000E+00
(PID.TID 0000.0001) %MON trcstat_ptracer96_max        =   1.23991366621573442E-07
(PID.TID 0000.0001) %MON trcstat_ptracer96_min        =   1.38297275799612137E-34
(PID.TID 0000.0001) %MON trcstat_ptracer96_mean       =   1.63969927008380569E-08
(PID.TID 0000.0001) %MON trcstat_ptracer96_sd         =   2.99912508425553729E-08
(PID.TID 0000.0001) %MON trcstat_ptracer96_del2       =   0.00000000000000000E+00
(PID.TID 0000.0001) %MON trcstat_ptracer97_max        =   1.23991037471643473E-07
(PID.TID 0000.0001) %MON trcstat_ptracer97_min        =   1.38297275799550535E-34
(PID.TID 0000.0001) %MON trcstat_ptracer97_mean       =   1.63969833147841006E-08
(PID.TID 0000.0001) %MON trcstat_ptracer97_sd         =   2.99912193705876287E-08
(PID.TID 0000.0001) %MON trcstat_ptracer97_del2       =   0.00000000000000000E+00
(PID.TID 0000.0001) %MON trcstat_ptracer98_max        =   3.30339700010026476E-04
(PID.TID 0000.0001) %MON trcstat_ptracer98_min        =   4.79462584343854958E-32
(PID.TID 0000.0001) %MON trcstat_ptracer98_mean       =   8.24396142008382110E-06
(PID.TID 0000.0001) %MON trcstat_ptracer98_sd         =   4.31841053326966176E-05
(PID.TID 0000.0001) %MON trcstat_ptracer98_del2       =   0.00000000000000000E+00
(PID.TID 0000.0001) %MON trcstat_ptracer99_max        =   3.59221274035571316E-04
(PID.TID 0000.0001) %MON trcstat_ptracer99_min        =   4.98550189532218367E-32
(PID.TID 0000.0001) %MON trcstat_ptracer99_mean       =   9.04213075781298294E-06
(PID.TID 0000.0001) %MON trcstat_ptracer99_sd         =   4.73221004303450962E-05
(PID.TID 0000.0001) %MON trcstat_ptracer99_del2       =   0.00000000000000000E+00
(PID.TID 0000.0001) %MON trcstat_ptracer0a_max        =   1.79207567293005859E-04
(PID.TID 0000.0001) %MON trcstat_ptracer0a_min        =   8.20686537967435133E-37
(PID.TID 0000.0001) %MON trcstat_ptracer0a_mean       =   4.17901528293305792E-06
(PID.TID 0000.0001) %MON trcstat_ptracer0a_sd         =   2.20846191219708341E-05
(PID.TID 0000.0001) %MON trcstat_ptracer0a_del2       =   0.00000000000000000E+00
(PID.TID 0000.0001) %MON trcstat_ptracer0b_max        =   1.73612821628807000E-04
(PID.TID 0000.0001) %MON trcstat_ptracer0b_min        =   9.50573760049072109E-37
(PID.TID 0000.0001) %MON trcstat_ptracer0b_mean       =   3.97165603721086388E-06
(PID.TID 0000.0001) %MON trcstat_ptracer0b_sd         =   2.10097947903997487E-05
(PID.TID 0000.0001) %MON trcstat_ptracer0b_del2       =   0.00000000000000000E+00
(PID.TID 0000.0001) %MON trcstat_ptracer0c_max        =   4.45177646967629260E-04
(PID.TID 0000.0001) %MON trcstat_ptracer0c_min        =   5.99545658640635373E-32
(PID.TID 0000.0001) %MON trcstat_ptracer0c_mean       =   1.12222166868453843E-05
(PID.TID 0000.0001) %MON trcstat_ptracer0c_sd         =   5.86398686380366679E-05
(PID.TID 0000.0001) %MON trcstat_ptracer0c_del2       =   0.00000000000000000E+00
(PID.TID 0000.0001) %MON trcstat_ptracer0d_max        =   1.67083888211810687E-04
(PID.TID 0000.0001) %MON trcstat_ptracer0d_min        =   6.70477121765133272E-37
(PID.TID 0000.0001) %MON trcstat_ptracer0d_mean       =   4.03923220710222148E-06
(PID.TID 0000.0001) %MON trcstat_ptracer0d_sd         =   2.12855935237577839E-05
(PID.TID 0000.0001) %MON trcstat_ptracer0d_del2       =   0.00000000000000000E+00
(PID.TID 0000.0001) %MON trcstat_ptracer0e_max        =   1.95868452537578078E-04
(PID.TID 0000.0001) %MON trcstat_ptracer0e_min        =   9.26028170026952215E-37
(PID.TID 0000.0001) %MON trcstat_ptracer0e_mean       =   4.52425587500794957E-06
(PID.TID 0000.0001) %MON trcstat_ptracer0e_sd         =   2.39363492685658708E-05
(PID.TID 0000.0001) %MON trcstat_ptracer0e_del2       =   0.00000000000000000E+00
(PID.TID 0000.0001) %MON trcstat_ptracer0f_max        =   1.22032765970343644E-04
(PID.TID 0000.0001) %MON trcstat_ptracer0f_min        =   4.06309571904946462E-37
(PID.TID 0000.0001) %MON trcstat_ptracer0f_mean       =   3.06807435430670411E-06
(PID.TID 0000.0001) %MON trcstat_ptracer0f_sd         =   1.60565707582528450E-05
(PID.TID 0000.0001) %MON trcstat_ptracer0f_del2       =   0.00000000000000000E+00
(PID.TID 0000.0001) %MON trcstat_ptracer0g_max        =   1.63695053127380449E-04
(PID.TID 0000.0001) %MON trcstat_ptracer0g_min        =   9.49577656602214267E-37
(PID.TID 0000.0001) %MON trcstat_ptracer0g_mean       =   3.75170113485858658E-06
(PID.TID 0000.0001) %MON trcstat_ptracer0g_sd         =   1.98268402090986524E-05
(PID.TID 0000.0001) %MON trcstat_ptracer0g_del2       =   0.00000000000000000E+00
(PID.TID 0000.0001) %MON trcstat_ptracer0h_max        =   1.35005864243188949E-04
(PID.TID 0000.0001) %MON trcstat_ptracer0h_min        =   6.26742804088995071E-37
(PID.TID 0000.0001) %MON trcstat_ptracer0h_mean       =   3.12858311741283841E-06
(PID.TID 0000.0001) %MON trcstat_ptracer0h_sd         =   1.65485462425188296E-05
(PID.TID 0000.0001) %MON trcstat_ptracer0h_del2       =   0.00000000000000000E+00
(PID.TID 0000.0001) %MON trcstat_ptracer0i_max        =   4.00647252271199225E-04
(PID.TID 0000.0001) %MON trcstat_ptracer0i_min        =   5.80514309970756770E-32
(PID.TID 0000.0001) %MON trcstat_ptracer0i_mean       =   1.00100678870127540E-05
(PID.TID 0000.0001) %MON trcstat_ptracer0i_sd         =   5.24385286572850507E-05
(PID.TID 0000.0001) %MON trcstat_ptracer0i_del2       =   0.00000000000000000E+00
(PID.TID 0000.0001) %MON trcstat_ptracer0j_max        =   1.22810095854905419E-04
(PID.TID 0000.0001) %MON trcstat_ptracer0j_min        =   5.12933701922516707E-37
(PID.TID 0000.0001) %MON trcstat_ptracer0j_mean       =   2.90708679730055391E-06
(PID.TID 0000.0001) %MON trcstat_ptracer0j_sd         =   1.53517739778207301E-05
(PID.TID 0000.0001) %MON trcstat_ptracer0j_del2       =   0.00000000000000000E+00
(PID.TID 0000.0001) %MON trcstat_ptracer0k_max        =   3.74943953305226945E-04
(PID.TID 0000.0001) %MON trcstat_ptracer0k_min        =   5.31423645434818630E-32
(PID.TID 0000.0001) %MON trcstat_ptracer0k_mean       =   9.38627848208403150E-06
(PID.TID 0000.0001) %MON trcstat_ptracer0k_sd         =   4.91651948956815172E-05
(PID.TID 0000.0001) %MON trcstat_ptracer0k_del2       =   0.00000000000000000E+00
(PID.TID 0000.0001) %MON trcstat_ptracer0l_max        =   3.76314617201593045E-04
(PID.TID 0000.0001) %MON trcstat_ptracer0l_min        =   6.65296012168326903E-32
(PID.TID 0000.0001) %MON trcstat_ptracer0l_mean       =   8.97509104618946748E-06
(PID.TID 0000.0001) %MON trcstat_ptracer0l_sd         =   4.73444195719283203E-05
(PID.TID 0000.0001) %MON trcstat_ptracer0l_del2       =   0.00000000000000000E+00
(PID.TID 0000.0001) %MON trcstat_ptracer0m_max        =   1.76972440010021595E-04
(PID.TID 0000.0001) %MON trcstat_ptracer0m_min        =   8.92074247063262078E-37
(PID.TID 0000.0001) %MON trcstat_ptracer0m_mean       =   4.07609480318376266E-06
(PID.TID 0000.0001) %MON trcstat_ptracer0m_sd         =   2.15540900762820899E-05
(PID.TID 0000.0001) %MON trcstat_ptracer0m_del2       =   0.00000000000000000E+00
(PID.TID 0000.0001) %MON trcstat_ptracer0n_max        =   1.05889530681688794E-04
(PID.TID 0000.0001) %MON trcstat_ptracer0n_min        =   4.41156502199549754E-37
(PID.TID 0000.0001) %MON trcstat_ptracer0n_mean       =   2.52648384692679246E-06
(PID.TID 0000.0001) %MON trcstat_ptracer0n_sd         =   1.33283699293334631E-05
(PID.TID 0000.0001) %MON trcstat_ptracer0n_del2       =   0.00000000000000000E+00
(PID.TID 0000.0001) %MON trcstat_ptracer0o_max        =   1.69889278007456600E-04
(PID.TID 0000.0001) %MON trcstat_ptracer0o_min        =   5.76319350454811080E-37
(PID.TID 0000.0001) %MON trcstat_ptracer0o_mean       =   4.25506254203790896E-06
(PID.TID 0000.0001) %MON trcstat_ptracer0o_sd         =   2.22843426669014716E-05
(PID.TID 0000.0001) %MON trcstat_ptracer0o_del2       =   0.00000000000000000E+00
(PID.TID 0000.0001) %MON trcstat_ptracer0p_max        =   1.95171659974946362E-04
(PID.TID 0000.0001) %MON trcstat_ptracer0p_min        =   7.83886837258989876E-37
(PID.TID 0000.0001) %MON trcstat_ptracer0p_mean       =   4.71662484317465511E-06
(PID.TID 0000.0001) %MON trcstat_ptracer0p_sd         =   2.48559791392215198E-05
(PID.TID 0000.0001) %MON trcstat_ptracer0p_del2       =   0.00000000000000000E+00
(PID.TID 0000.0001) %MON trcstat_ptracer0q_max        =   1.46759627087012060E-04
(PID.TID 0000.0001) %MON trcstat_ptracer0q_min        =   5.10070199917143913E-37
(PID.TID 0000.0001) %MON trcstat_ptracer0q_mean       =   3.65005096684312792E-06
(PID.TID 0000.0001) %MON trcstat_ptracer0q_sd         =   1.91370735936569862E-05
(PID.TID 0000.0001) %MON trcstat_ptracer0q_del2       =   0.00000000000000000E+00
(PID.TID 0000.0001) %MON trcstat_ptracer0r_max        =   1.32306277463119270E-04
(PID.TID 0000.0001) %MON trcstat_ptracer0r_min        =   5.61032175669853031E-37
(PID.TID 0000.0001) %MON trcstat_ptracer0r_mean       =   3.12005871600403627E-06
(PID.TID 0000.0001) %MON trcstat_ptracer0r_sd         =   1.64821103787849178E-05
(PID.TID 0000.0001) %MON trcstat_ptracer0r_del2       =   0.00000000000000000E+00
(PID.TID 0000.0001) %MON trcstat_ptracer0s_max        =   1.21864872472623862E-04
(PID.TID 0000.0001) %MON trcstat_ptracer0s_min        =   5.48383847886901914E-37
(PID.TID 0000.0001) %MON trcstat_ptracer0s_mean       =   2.85126552617133805E-06
(PID.TID 0000.0001) %MON trcstat_ptracer0s_sd         =   1.50645079593163296E-05
(PID.TID 0000.0001) %MON trcstat_ptracer0s_del2       =   0.00000000000000000E+00
(PID.TID 0000.0001) %MON trcstat_ptracer0t_max        =   3.28253465744884204E-04
(PID.TID 0000.0001) %MON trcstat_ptracer0t_min        =   5.22147765292138103E-32
(PID.TID 0000.0001) %MON trcstat_ptracer0t_mean       =   8.04140608293321647E-06
(PID.TID 0000.0001) %MON trcstat_ptracer0t_sd         =   4.22819477655251159E-05
(PID.TID 0000.0001) %MON trcstat_ptracer0t_del2       =   0.00000000000000000E+00
(PID.TID 0000.0001) %MON trcstat_ptracer0u_max        =   1.21864515145228786E-04
(PID.TID 0000.0001) %MON trcstat_ptracer0u_min        =   5.52422468371397259E-37
(PID.TID 0000.0001) %MON trcstat_ptracer0u_mean       =   2.83778787806041466E-06
(PID.TID 0000.0001) %MON trcstat_ptracer0u_sd         =   1.49990132798637876E-05
(PID.TID 0000.0001) %MON trcstat_ptracer0u_del2       =   0.00000000000000000E+00
(PID.TID 0000.0001) %MON trcstat_ptracer0v_max        =   4.27134708717214872E-04
(PID.TID 0000.0001) %MON trcstat_ptracer0v_min        =   5.87353575745450217E-32
(PID.TID 0000.0001) %MON trcstat_ptracer0v_mean       =   1.07535662735096748E-05
(PID.TID 0000.0001) %MON trcstat_ptracer0v_sd         =   5.62089840718967118E-05
(PID.TID 0000.0001) %MON trcstat_ptracer0v_del2       =   0.00000000000000000E+00
(PID.TID 0000.0001) %MON trcstat_ptracer0w_max        =   3.42307092415312952E-04
(PID.TID 0000.0001) %MON trcstat_ptracer0w_min        =   5.36653999811509828E-32
(PID.TID 0000.0001) %MON trcstat_ptracer0w_mean       =   8.40419373785965922E-06
(PID.TID 0000.0001) %MON trcstat_ptracer0w_sd         =   4.41651545719029675E-05
(PID.TID 0000.0001) %MON trcstat_ptracer0w_del2       =   0.00000000000000000E+00
(PID.TID 0000.0001) %MON trcstat_ptracer0x_max        =   3.36275982679435303E-04
(PID.TID 0000.0001) %MON trcstat_ptracer0x_min        =   5.18545345652290961E-32
(PID.TID 0000.0001) %MON trcstat_ptracer0x_mean       =   8.28461247922393127E-06
(PID.TID 0000.0001) %MON trcstat_ptracer0x_sd         =   4.34931706139181267E-05
(PID.TID 0000.0001) %MON trcstat_ptracer0x_del2       =   0.00000000000000000E+00
(PID.TID 0000.0001) %MON trcstat_ptracer0y_max        =   1.31393720194026805E-04
(PID.TID 0000.0001) %MON trcstat_ptracer0y_min        =   4.98282532689475679E-37
(PID.TID 0000.0001) %MON trcstat_ptracer0y_mean       =   3.20641503268160722E-06
(PID.TID 0000.0001) %MON trcstat_ptracer0y_sd         =   1.68834753252832406E-05
(PID.TID 0000.0001) %MON trcstat_ptracer0y_del2       =   0.00000000000000000E+00
(PID.TID 0000.0001) %MON trcstat_ptracer0z_max        =   3.39721965846309800E-04
(PID.TID 0000.0001) %MON trcstat_ptracer0z_min        =   5.66501430725853798E-32
(PID.TID 0000.0001) %MON trcstat_ptracer0z_mean       =   8.27791785376812531E-06
(PID.TID 0000.0001) %MON trcstat_ptracer0z_sd         =   4.35883848381408298E-05
(PID.TID 0000.0001) %MON trcstat_ptracer0z_del2       =   0.00000000000000000E+00
(PID.TID 0000.0001) %MON trcstat_ptracer0A_max        =   1.29479360722213491E-04
(PID.TID 0000.0001) %MON trcstat_ptracer0A_min        =   4.42912681022682486E-37
(PID.TID 0000.0001) %MON trcstat_ptracer0A_mean       =   3.22710158524275257E-06
(PID.TID 0000.0001) %MON trcstat_ptracer0A_sd         =   1.69130396090785078E-05
(PID.TID 0000.0001) %MON trcstat_ptracer0A_del2       =   0.00000000000000000E+00
(PID.TID 0000.0001) %MON trcstat_ptracer0B_max        =   3.59992141006371189E-04
(PID.TID 0000.0001) %MON trcstat_ptracer0B_min        =   5.20323151759295601E-32
(PID.TID 0000.0001) %MON trcstat_ptracer0B_mean       =   9.00093474978902499E-06
(PID.TID 0000.0001) %MON trcstat_ptracer0B_sd         =   4.71466926777546107E-05
(PID.TID 0000.0001) %MON trcstat_ptracer0B_del2       =   0.00000000000000000E+00
(PID.TID 0000.0001) %MON trcstat_ptracer0C_max        =   2.01986664484006745E-04
(PID.TID 0000.0001) %MON trcstat_ptracer0C_min        =   7.70895988139551149E-37
(PID.TID 0000.0001) %MON trcstat_ptracer0C_mean       =   4.94030252715804651E-06
(PID.TID 0000.0001) %MON trcstat_ptracer0C_sd         =   2.59843351673474052E-05
(PID.TID 0000.0001) %MON trcstat_ptracer0C_del2       =   0.00000000000000000E+00
(PID.TID 0000.0001) %MON trcstat_ptracer0D_max        =   1.55386986343066175E-04
(PID.TID 0000.0001) %MON trcstat_ptracer0D_min        =   7.28717122035030520E-37
(PID.TID 0000.0001) %MON trcstat_ptracer0D_mean       =   3.59133011702469155E-06
(PID.TID 0000.0001) %MON trcstat_ptracer0D_sd         =   1.90022415207937129E-05
(PID.TID 0000.0001) %MON trcstat_ptracer0D_del2       =   0.00000000000000000E+00
(PID.TID 0000.0001) %MON trcstat_ptracer0E_max        =   3.62168216512460473E-04
(PID.TID 0000.0001) %MON trcstat_ptracer0E_min        =   5.72792523973358233E-32
(PID.TID 0000.0001) %MON trcstat_ptracer0E_mean       =   8.87958904236468361E-06
(PID.TID 0000.0001) %MON trcstat_ptracer0E_sd         =   4.66795566417917945E-05
(PID.TID 0000.0001) %MON trcstat_ptracer0E_del2       =   0.00000000000000000E+00
(PID.TID 0000.0001) %MON trcstat_ptracer0F_max        =   1.89162602910104426E-04
(PID.TID 0000.0001) %MON trcstat_ptracer0F_min        =   7.60183149616329742E-37
(PID.TID 0000.0001) %MON trcstat_ptracer0F_mean       =   4.57040860280355641E-06
(PID.TID 0000.0001) %MON trcstat_ptracer0F_sd         =   2.40858815525326838E-05
(PID.TID 0000.0001) %MON trcstat_ptracer0F_del2       =   0.00000000000000000E+00
(PID.TID 0000.0001) %MON trcstat_ptracer0G_max        =   4.19855893130968933E-04
(PID.TID 0000.0001) %MON trcstat_ptracer0G_min        =   6.07627010772873933E-32
(PID.TID 0000.0001) %MON trcstat_ptracer0G_mean       =   1.04682526503372531E-05
(PID.TID 0000.0001) %MON trcstat_ptracer0G_sd         =   5.48561255338958509E-05
(PID.TID 0000.0001) %MON trcstat_ptracer0G_del2       =   0.00000000000000000E+00
(PID.TID 0000.0001) %MON trcstat_ptracer0H_max        =   3.15329720916048635E-04
(PID.TID 0000.0001) %MON trcstat_ptracer0H_min        =   4.90404508477838042E-32
(PID.TID 0000.0001) %MON trcstat_ptracer0H_mean       =   7.75166561095074643E-06
(PID.TID 0000.0001) %MON trcstat_ptracer0H_sd         =   4.07264742220869559E-05
(PID.TID 0000.0001) %MON trcstat_ptracer0H_del2       =   0.00000000000000000E+00
(PID.TID 0000.0001) %MON trcstat_ptracer0I_max        =   3.79882233021727842E-04
(PID.TID 0000.0001) %MON trcstat_ptracer0I_min        =   5.07502172300386777E-32
(PID.TID 0000.0001) %MON trcstat_ptracer0I_mean       =   9.57866213071310087E-06
(PID.TID 0000.0001) %MON trcstat_ptracer0I_sd         =   5.00440865871419879E-05
(PID.TID 0000.0001) %MON trcstat_ptracer0I_del2       =   0.00000000000000000E+00
(PID.TID 0000.0001) %MON trcstat_ptracer0J_max        =   1.72485336996262411E-04
(PID.TID 0000.0001) %MON trcstat_ptracer0J_min        =   6.41872971465318818E-37
(PID.TID 0000.0001) %MON trcstat_ptracer0J_mean       =   4.21513259191067461E-06
(PID.TID 0000.0001) %MON trcstat_ptracer0J_sd         =   2.21826893284996110E-05
(PID.TID 0000.0001) %MON trcstat_ptracer0J_del2       =   0.00000000000000000E+00
(PID.TID 0000.0001) %MON trcstat_ptracer0K_max        =   1.38490897227437729E-04
(PID.TID 0000.0001) %MON trcstat_ptracer0K_min        =   5.90366417805051257E-37
(PID.TID 0000.0001) %MON trcstat_ptracer0K_mean       =   3.28204367304106120E-06
(PID.TID 0000.0001) %MON trcstat_ptracer0K_sd         =   1.73237377062146475E-05
(PID.TID 0000.0001) %MON trcstat_ptracer0K_del2       =   0.00000000000000000E+00
(PID.TID 0000.0001) %MON trcstat_ptracer0L_max        =   3.19388048938929066E-04
(PID.TID 0000.0001) %MON trcstat_ptracer0L_min        =   4.52317093312942648E-32
(PID.TID 0000.0001) %MON trcstat_ptracer0L_mean       =   8.01203497720770332E-06
(PID.TID 0000.0001) %MON trcstat_ptracer0L_sd         =   4.19471817048620841E-05
(PID.TID 0000.0001) %MON trcstat_ptracer0L_del2       =   0.00000000000000000E+00
(PID.TID 0000.0001) %MON trcstat_ptracer0M_max        =   3.58879757464744943E-04
(PID.TID 0000.0001) %MON trcstat_ptracer0M_min        =   4.66428405821004687E-32
(PID.TID 0000.0001) %MON trcstat_ptracer0M_mean       =   9.07575669793937345E-06
(PID.TID 0000.0001) %MON trcstat_ptracer0M_sd         =   4.73292937943011231E-05
(PID.TID 0000.0001) %MON trcstat_ptracer0M_del2       =   0.00000000000000000E+00
(PID.TID 0000.0001) %MON trcstat_ptracer0N_max        =   1.52569497043142263E-04
(PID.TID 0000.0001) %MON trcstat_ptracer0N_min        =   8.14249972723191991E-37
(PID.TID 0000.0001) %MON trcstat_ptracer0N_mean       =   3.50143325964054886E-06
(PID.TID 0000.0001) %MON trcstat_ptracer0N_sd         =   1.85143676618609095E-05
(PID.TID 0000.0001) %MON trcstat_ptracer0N_del2       =   0.00000000000000000E+00
(PID.TID 0000.0001) %MON trcstat_ptracer0O_max        =   1.48534383498603938E-04
(PID.TID 0000.0001) %MON trcstat_ptracer0O_min        =   6.06394909790456565E-37
(PID.TID 0000.0001) %MON trcstat_ptracer0O_mean       =   3.54975321420370400E-06
(PID.TID 0000.0001) %MON trcstat_ptracer0O_sd         =   1.87257233625017721E-05
(PID.TID 0000.0001) %MON trcstat_ptracer0O_del2       =   0.00000000000000000E+00
(PID.TID 0000.0001) %MON trcstat_ptracer0P_max        =   2.35173792130103867E-04
(PID.TID 0000.0001) %MON trcstat_ptracer0P_min        =   9.11289561108186222E-37
(PID.TID 0000.0001) %MON trcstat_ptracer0P_mean       =   5.72579738388698730E-06
(PID.TID 0000.0001) %MON trcstat_ptracer0P_sd         =   3.01637041428254062E-05
(PID.TID 0000.0001) %MON trcstat_ptracer0P_del2       =   0.00000000000000000E+00
(PID.TID 0000.0001) %MON trcstat_ptracer0Q_max        =   3.76208582888919369E-04
(PID.TID 0000.0001) %MON trcstat_ptracer0Q_min        =   6.63936594362321007E-32
(PID.TID 0000.0001) %MON trcstat_ptracer0Q_mean       =   8.97749997963396694E-06
(PID.TID 0000.0001) %MON trcstat_ptracer0Q_sd         =   4.73549959140813677E-05
(PID.TID 0000.0001) %MON trcstat_ptracer0Q_del2       =   0.00000000000000000E+00
(PID.TID 0000.0001) %MON trcstat_ptracer0R_max        =   3.39990199066125375E-04
(PID.TID 0000.0001) %MON trcstat_ptracer0R_min        =   5.72723126332646322E-32
(PID.TID 0000.0001) %MON trcstat_ptracer0R_mean       =   8.22951320865935860E-06
(PID.TID 0000.0001) %MON trcstat_ptracer0R_sd         =   4.33385599959871536E-05
(PID.TID 0000.0001) %MON trcstat_ptracer0R_del2       =   0.00000000000000000E+00
(PID.TID 0000.0001) %MON trcstat_ptracer0S_max        =   1.02370795205286518E-04
(PID.TID 0000.0001) %MON trcstat_ptracer0S_min        =   4.21017606474146947E-37
(PID.TID 0000.0001) %MON trcstat_ptracer0S_mean       =   2.45285740692274130E-06
(PID.TID 0000.0001) %MON trcstat_ptracer0S_sd         =   1.29354703646234312E-05
(PID.TID 0000.0001) %MON trcstat_ptracer0S_del2       =   0.00000000000000000E+00
(PID.TID 0000.0001) %MON trcstat_ptracer0T_max        =   3.63874947278957240E-04
(PID.TID 0000.0001) %MON trcstat_ptracer0T_min        =   5.10678068658808144E-32
(PID.TID 0000.0001) %MON trcstat_ptracer0T_mean       =   9.16046039643249727E-06
(PID.TID 0000.0001) %MON trcstat_ptracer0T_sd         =   4.79348301755421057E-05
(PID.TID 0000.0001) %MON trcstat_ptracer0T_del2       =   0.00000000000000000E+00
(PID.TID 0000.0001) %MON trcstat_ptracer0U_max        =   3.54800845989776121E-04
(PID.TID 0000.0001) %MON trcstat_ptracer0U_min        =   5.53412309796738744E-32
(PID.TID 0000.0001) %MON trcstat_ptracer0U_mean       =   8.71788368709508856E-06
(PID.TID 0000.0001) %MON trcstat_ptracer0U_sd         =   4.58066426774104908E-05
(PID.TID 0000.0001) %MON trcstat_ptracer0U_del2       =   0.00000000000000000E+00
(PID.TID 0000.0001) %MON trcstat_ptracer0V_max        =   3.60087577391821458E-04
(PID.TID 0000.0001) %MON trcstat_ptracer0V_min        =   6.11988862123900515E-32
(PID.TID 0000.0001) %MON trcstat_ptracer0V_mean       =   8.69660438590260848E-06
(PID.TID 0000.0001) %MON trcstat_ptracer0V_sd         =   4.58036051921984334E-05
(PID.TID 0000.0001) %MON trcstat_ptracer0V_del2       =   0.00000000000000000E+00
(PID.TID 0000.0001) %MON trcstat_ptracer0W_max        =   4.70288907944542488E-04
(PID.TID 0000.0001) %MON trcstat_ptracer0W_min        =   6.53405299009549176E-32
(PID.TID 0000.0001) %MON trcstat_ptracer0W_mean       =   1.18358587090025145E-05
(PID.TID 0000.0001) %MON trcstat_ptracer0W_sd         =   6.18910461222505712E-05
(PID.TID 0000.0001) %MON trcstat_ptracer0W_del2       =   0.00000000000000000E+00
(PID.TID 0000.0001) %MON trcstat_ptracer0X_max        =   1.80522955859125023E-04
(PID.TID 0000.0001) %MON trcstat_ptracer0X_min        =   6.46530464049803354E-37
(PID.TID 0000.0001) %MON trcstat_ptracer0X_mean       =   4.44251325300576822E-06
(PID.TID 0000.0001) %MON trcstat_ptracer0X_sd         =   2.33460683812311514E-05
(PID.TID 0000.0001) %MON trcstat_ptracer0X_del2       =   0.00000000000000000E+00
(PID.TID 0000.0001) %MON trcstat_ptracer0Y_max        =   3.53235861554915492E-04
(PID.TID 0000.0001) %MON trcstat_ptracer0Y_min        =   4.91342534297760846E-32
(PID.TID 0000.0001) %MON trcstat_ptracer0Y_mean       =   8.88990759838578373E-06
(PID.TID 0000.0001) %MON trcstat_ptracer0Y_sd         =   4.65170552436105237E-05
(PID.TID 0000.0001) %MON trcstat_ptracer0Y_del2       =   0.00000000000000000E+00
(PID.TID 0000.0001) %MON trcstat_ptracer0Z_max        =   3.64750391649801677E-04
(PID.TID 0000.0001) %MON trcstat_ptracer0Z_min        =   5.64208680357865286E-32
(PID.TID 0000.0001) %MON trcstat_ptracer0Z_mean       =   8.96608333044407385E-06
(PID.TID 0000.0001) %MON trcstat_ptracer0Z_sd         =   4.71042307171872391E-05
(PID.TID 0000.0001) %MON trcstat_ptracer0Z_del2       =   0.00000000000000000E+00
(PID.TID 0000.0001) %MON trcstat_ptracer1a_max        =   1.45214121243421480E-04
(PID.TID 0000.0001) %MON trcstat_ptracer1a_min        =   5.81748143780618624E-37
(PID.TID 0000.0001) %MON trcstat_ptracer1a_mean       =   3.51299396754675755E-06
(PID.TID 0000.0001) %MON trcstat_ptracer1a_sd         =   1.85110600405867867E-05
(PID.TID 0000.0001) %MON trcstat_ptracer1a_del2       =   0.00000000000000000E+00
(PID.TID 0000.0001) %MON trcstat_ptracer1b_max        =   3.73039616165413482E-04
(PID.TID 0000.0001) %MON trcstat_ptracer1b_min        =   6.07429268171742706E-32
(PID.TID 0000.0001) %MON trcstat_ptracer1b_mean       =   9.10270880698982923E-06
(PID.TID 0000.0001) %MON trcstat_ptracer1b_sd         =   4.79145141510114344E-05
(PID.TID 0000.0001) %MON trcstat_ptracer1b_del2       =   0.00000000000000000E+00
(PID.TID 0000.0001) %MON trcstat_ptracer1c_max        =   3.08221562290554411E-04
(PID.TID 0000.0001) %MON trcstat_ptracer1c_min        =   4.85462132408236039E-32
(PID.TID 0000.0001) %MON trcstat_ptracer1c_mean       =   7.55755132057992268E-06
(PID.TID 0000.0001) %MON trcstat_ptracer1c_sd         =   3.97259482791127144E-05
(PID.TID 0000.0001) %MON trcstat_ptracer1c_del2       =   0.00000000000000000E+00
(PID.TID 0000.0001) %MON trcstat_ptracer1d_max        =   1.67818564380119677E-04
(PID.TID 0000.0001) %MON trcstat_ptracer1d_min        =   9.50522655097621553E-37
(PID.TID 0000.0001) %MON trcstat_ptracer1d_mean       =   3.84603569436504345E-06
(PID.TID 0000.0001) %MON trcstat_ptracer1d_sd         =   2.03298823406241225E-05
(PID.TID 0000.0001) %MON trcstat_ptracer1d_del2       =   0.00000000000000000E+00
(PID.TID 0000.0001) %MON trcstat_ptracer1e_max        =   1.91924307858975347E-04
(PID.TID 0000.0001) %MON trcstat_ptracer1e_min        =   6.89969081977898697E-37
(PID.TID 0000.0001) %MON trcstat_ptracer1e_mean       =   4.71614221917517445E-06
(PID.TID 0000.0001) %MON trcstat_ptracer1e_sd         =   2.47960899811015267E-05
(PID.TID 0000.0001) %MON trcstat_ptracer1e_del2       =   0.00000000000000000E+00
(PID.TID 0000.0001) %MON trcstat_ptracer1f_max        =   1.16820667602700142E-04
(PID.TID 0000.0001) %MON trcstat_ptracer1f_min        =   4.97162359418276840E-37
(PID.TID 0000.0001) %MON trcstat_ptracer1f_mean       =   2.76976712325242090E-06
(PID.TID 0000.0001) %MON trcstat_ptracer1f_sd         =   1.46192333236733179E-05
(PID.TID 0000.0001) %MON trcstat_ptracer1f_del2       =   0.00000000000000000E+00
(PID.TID 0000.0001) %MON trcstat_ptracer1g_max        =   4.66564516946844801E-04
(PID.TID 0000.0001) %MON trcstat_ptracer1g_min        =   6.65188067235745838E-32
(PID.TID 0000.0001) %MON trcstat_ptracer1g_mean       =   1.17162560157825273E-05
(PID.TID 0000.0001) %MON trcstat_ptracer1g_sd         =   6.13293475149584010E-05
(PID.TID 0000.0001) %MON trcstat_ptracer1g_del2       =   0.00000000000000000E+00
(PID.TID 0000.0001) %MON trcstat_ptracer1h_max        =   3.98966091027596378E-04
(PID.TID 0000.0001) %MON trcstat_ptracer1h_min        =   5.65537685852429715E-32
(PID.TID 0000.0001) %MON trcstat_ptracer1h_mean       =   1.00376535087707008E-05
(PID.TID 0000.0001) %MON trcstat_ptracer1h_sd         =   5.25278230661392311E-05
(PID.TID 0000.0001) %MON trcstat_ptracer1h_del2       =   0.00000000000000000E+00
(PID.TID 0000.0001) %MON trcstat_ptracer1i_max        =   1.62439985826622329E-04
(PID.TID 0000.0001) %MON trcstat_ptracer1i_min        =   5.71143866353704673E-37
(PID.TID 0000.0001) %MON trcstat_ptracer1i_mean       =   4.02905098467393516E-06
(PID.TID 0000.0001) %MON trcstat_ptracer1i_sd         =   2.11313794243752277E-05
(PID.TID 0000.0001) %MON trcstat_ptracer1i_del2       =   0.00000000000000000E+00
(PID.TID 0000.0001) %MON trcstat_ptracer1j_max        =   1.42802253520428615E-04
(PID.TID 0000.0001) %MON trcstat_ptracer1j_min        =   5.84232198906555508E-37
(PID.TID 0000.0001) %MON trcstat_ptracer1j_mean       =   3.42777031046600418E-06
(PID.TID 0000.0001) %MON trcstat_ptracer1j_sd         =   1.80741117892482312E-05
(PID.TID 0000.0001) %MON trcstat_ptracer1j_del2       =   0.00000000000000000E+00
(PID.TID 0000.0001) %MON trcstat_ptracer1k_max        =   1.58071102580830655E-04
(PID.TID 0000.0001) %MON trcstat_ptracer1k_min        =   8.46801758969650968E-37
(PID.TID 0000.0001) %MON trcstat_ptracer1k_mean       =   3.62713144346722146E-06
(PID.TID 0000.0001) %MON trcstat_ptracer1k_sd         =   1.91787691986193517E-05
(PID.TID 0000.0001) %MON trcstat_ptracer1k_del2       =   0.00000000000000000E+00
(PID.TID 0000.0001) %MON trcstat_ptracer1l_max        =   4.56427899847877661E-04
(PID.TID 0000.0001) %MON trcstat_ptracer1l_min        =   6.65216164206602822E-32
(PID.TID 0000.0001) %MON trcstat_ptracer1l_mean       =   1.13844206595074018E-05
(PID.TID 0000.0001) %MON trcstat_ptracer1l_sd         =   5.96542119364512532E-05
(PID.TID 0000.0001) %MON trcstat_ptracer1l_del2       =   0.00000000000000000E+00
(PID.TID 0000.0001) %MON trcstat_ptracer1m_max        =   3.30124730894520090E-04
(PID.TID 0000.0001) %MON trcstat_ptracer1m_min        =   4.86234830395188969E-32
(PID.TID 0000.0001) %MON trcstat_ptracer1m_mean       =   8.21699539069779491E-06
(PID.TID 0000.0001) %MON trcstat_ptracer1m_sd         =   4.30552667652078921E-05
(PID.TID 0000.0001) %MON trcstat_ptracer1m_del2       =   0.00000000000000000E+00
(PID.TID 0000.0001) %MON trcstat_ptracer1n_max        =   3.68467496299052834E-04
(PID.TID 0000.0001) %MON trcstat_ptracer1n_min        =   6.28018778477114955E-32
(PID.TID 0000.0001) %MON trcstat_ptracer1n_mean       =   8.89963413059780814E-06
(PID.TID 0000.0001) %MON trcstat_ptracer1n_sd         =   4.68957279970321208E-05
(PID.TID 0000.0001) %MON trcstat_ptracer1n_del2       =   0.00000000000000000E+00
(PID.TID 0000.0001) %MON trcstat_ptracer1o_max        =   3.62737747260667210E-04
(PID.TID 0000.0001) %MON trcstat_ptracer1o_min        =   6.08515913826376254E-32
(PID.TID 0000.0001) %MON trcstat_ptracer1o_mean       =   8.81642198474313346E-06
(PID.TID 0000.0001) %MON trcstat_ptracer1o_sd         =   4.64339244590464446E-05
(PID.TID 0000.0001) %MON trcstat_ptracer1o_del2       =   0.00000000000000000E+00
(PID.TID 0000.0001) %MON trcstat_ptracer1p_max        =   3.10333596495277310E-04
(PID.TID 0000.0001) %MON trcstat_ptracer1p_min        =   4.58473959383414874E-32
(PID.TID 0000.0001) %MON trcstat_ptracer1p_mean       =   7.70220032892184380E-06
(PID.TID 0000.0001) %MON trcstat_ptracer1p_sd         =   4.03874885395547897E-05
(PID.TID 0000.0001) %MON trcstat_ptracer1p_del2       =   0.00000000000000000E+00
(PID.TID 0000.0001) %MON trcstat_ptracer1q_max        =   1.78646026463261700E-04
(PID.TID 0000.0001) %MON trcstat_ptracer1q_min        =   6.08193183732552646E-37
(PID.TID 0000.0001) %MON trcstat_ptracer1q_mean       =   4.44638428588413380E-06
(PID.TID 0000.0001) %MON trcstat_ptracer1q_sd         =   2.33157891835305804E-05
(PID.TID 0000.0001) %MON trcstat_ptracer1q_del2       =   0.00000000000000000E+00
(PID.TID 0000.0001) %MON trcstat_ptracer1r_max        =   1.63825151044490809E-04
(PID.TID 0000.0001) %MON trcstat_ptracer1r_min        =   6.22832093685330418E-37
(PID.TID 0000.0001) %MON trcstat_ptracer1r_mean       =   4.00605625878868762E-06
(PID.TID 0000.0001) %MON trcstat_ptracer1r_sd         =   2.10749154855619299E-05
(PID.TID 0000.0001) %MON trcstat_ptracer1r_del2       =   0.00000000000000000E+00
(PID.TID 0000.0001) %MON trcstat_ptracer1s_max        =   3.44886421829684441E-04
(PID.TID 0000.0001) %MON trcstat_ptracer1s_min        =   4.33051394630015176E-32
(PID.TID 0000.0001) %MON trcstat_ptracer1s_mean       =   8.76862734924548221E-06
(PID.TID 0000.0001) %MON trcstat_ptracer1s_sd         =   4.56564152124913945E-05
(PID.TID 0000.0001) %MON trcstat_ptracer1s_del2       =   0.00000000000000000E+00
(PID.TID 0000.0001) %MON trcstat_ptracer1t_max        =   1.57136922569761384E-04
(PID.TID 0000.0001) %MON trcstat_ptracer1t_min        =   8.28786968177400085E-37
(PID.TID 0000.0001) %MON trcstat_ptracer1t_mean       =   3.60834385864366023E-06
(PID.TID 0000.0001) %MON trcstat_ptracer1t_sd         =   1.90797029066141309E-05
(PID.TID 0000.0001) %MON trcstat_ptracer1t_del2       =   0.00000000000000000E+00
(PID.TID 0000.0001) %MON trcstat_ptracer1u_max        =   1.98102541357534696E-04
(PID.TID 0000.0001) %MON trcstat_ptracer1u_min        =   8.60567749086879680E-37
(PID.TID 0000.0001) %MON trcstat_ptracer1u_mean       =   4.64592985137404449E-06
(PID.TID 0000.0001) %MON trcstat_ptracer1u_sd         =   2.45536995812104531E-05
(PID.TID 0000.0001) %MON trcstat_ptracer1u_del2       =   0.00000000000000000E+00
(PID.TID 0000.0001) %MON trcstat_ptracer1v_max        =   1.82313924360474043E-04
(PID.TID 0000.0001) %MON trcstat_ptracer1v_min        =   8.57653585236567094E-37
(PID.TID 0000.0001) %MON trcstat_ptracer1v_mean       =   4.23365649380811290E-06
(PID.TID 0000.0001) %MON trcstat_ptracer1v_sd         =   2.23766388785115774E-05
(PID.TID 0000.0001) %MON trcstat_ptracer1v_del2       =   0.00000000000000000E+00
(PID.TID 0000.0001) %MON trcstat_ptracer1w_max        =   2.30003920500107886E-04
(PID.TID 0000.0001) %MON trcstat_ptracer1w_min        =   8.83503090031640709E-37
(PID.TID 0000.0001) %MON trcstat_ptracer1w_mean       =   5.60224105710788286E-06
(PID.TID 0000.0001) %MON trcstat_ptracer1w_sd         =   2.95166976925569262E-05
(PID.TID 0000.0001) %MON trcstat_ptracer1w_del2       =   0.00000000000000000E+00
(PID.TID 0000.0001) %MON trcstat_ptracer1x_max        =   1.51336265555903076E-04
(PID.TID 0000.0001) %MON trcstat_ptracer1x_min        =   6.72790285478247405E-37
(PID.TID 0000.0001) %MON trcstat_ptracer1x_mean       =   3.54974359909090352E-06
(PID.TID 0000.0001) %MON trcstat_ptracer1x_sd         =   1.87514902885625911E-05
(PID.TID 0000.0001) %MON trcstat_ptracer1x_del2       =   0.00000000000000000E+00
(PID.TID 0000.0001) // =======================================================
(PID.TID 0000.0001) // End MONITOR ptracers field statistics
(PID.TID 0000.0001) // =======================================================
 Computing Diagnostic #    140  TRAC01       Counter:       1   Parms: SMR     MR      
 Computing Diagnostic #    152  TRAC02       Counter:       1   Parms: SMR     MR      
 Computing Diagnostic #    164  TRAC03       Counter:       1   Parms: SMR     MR      
 Computing Diagnostic #    176  TRAC04       Counter:       1   Parms: SMR     MR      
 Computing Diagnostic #    188  TRAC05       Counter:       1   Parms: SMR     MR      
 Computing Diagnostic #    200  TRAC06       Counter:       1   Parms: SMR     MR      
 Computing Diagnostic #    212  TRAC07       Counter:       1   Parms: SMR     MR      
 Computing Diagnostic #    224  TRAC08       Counter:       1   Parms: SMR     MR      
 Computing Diagnostic #    236  TRAC09       Counter:       1   Parms: SMR     MR      
 Computing Diagnostic #    248  TRAC10       Counter:       1   Parms: SMR     MR      
 Computing Diagnostic #    260  TRAC11       Counter:       1   Parms: SMR     MR      
 Computing Diagnostic #    272  TRAC12       Counter:       1   Parms: SMR     MR      
 Computing Diagnostic #    284  TRAC13       Counter:       1   Parms: SMR     MR      
 Computing Diagnostic #    296  TRAC14       Counter:       1   Parms: SMR     MR      
 Computing Diagnostic #    308  TRAC15       Counter:       1   Parms: SMR     MR      
 Computing Diagnostic #    320  TRAC16       Counter:       1   Parms: SMR     MR      
 Computing Diagnostic #    332  TRAC17       Counter:       1   Parms: SMR     MR      
 Computing Diagnostic #    344  TRAC18       Counter:       1   Parms: SMR     MR      
 Computing Diagnostic #    356  TRAC19       Counter:       1   Parms: SMR     MR      
 Computing Diagnostic #    368  TRAC20       Counter:       1   Parms: SMR     MR      
 Computing Diagnostic #    380  TRAC21       Counter:       1   Parms: SMR     MR      
 Computing Diagnostic #    392  TRAC22       Counter:       1   Parms: SMR     MR      
 Computing Diagnostic #    404  TRAC23       Counter:       1   Parms: SMR     MR      
 Computing Diagnostic #    416  TRAC24       Counter:       1   Parms: SMR     MR      
 Computing Diagnostic #    428  TRAC25       Counter:       1   Parms: SMR     MR      
 Computing Diagnostic #    440  TRAC26       Counter:       1   Parms: SMR     MR      
 Computing Diagnostic #    452  TRAC27       Counter:       1   Parms: SMR     MR      
 Computing Diagnostic #    464  TRAC28       Counter:       1   Parms: SMR     MR      
 Computing Diagnostic #    476  TRAC29       Counter:       1   Parms: SMR     MR      
 Computing Diagnostic #    488  TRAC30       Counter:       1   Parms: SMR     MR      
 Computing Diagnostic #    500  TRAC31       Counter:       1   Parms: SMR     MR      
 Computing Diagnostic #    512  TRAC32       Counter:       1   Parms: SMR     MR      
 Computing Diagnostic #    524  TRAC33       Counter:       1   Parms: SMR     MR      
 Computing Diagnostic #    536  TRAC34       Counter:       1   Parms: SMR     MR      
 Computing Diagnostic #    548  TRAC35       Counter:       1   Parms: SMR     MR      
 Computing Diagnostic #    560  TRAC36       Counter:       1   Parms: SMR     MR      
 Computing Diagnostic #    572  TRAC37       Counter:       1   Parms: SMR     MR      
 Computing Diagnostic #    584  TRAC38       Counter:       1   Parms: SMR     MR      
 Computing Diagnostic #    596  TRAC39       Counter:       1   Parms: SMR     MR      
 Computing Diagnostic #    608  TRAC40       Counter:       1   Parms: SMR     MR      
 Computing Diagnostic #    620  TRAC41       Counter:       1   Parms: SMR     MR      
 Computing Diagnostic #    632  TRAC42       Counter:       1   Parms: SMR     MR      
 Computing Diagnostic #    644  TRAC43       Counter:       1   Parms: SMR     MR      
 Computing Diagnostic #    656  TRAC44       Counter:       1   Parms: SMR     MR      
 Computing Diagnostic #    668  TRAC45       Counter:       1   Parms: SMR     MR      
 Computing Diagnostic #    680  TRAC46       Counter:       1   Parms: SMR     MR      
 Computing Diagnostic #    692  TRAC47       Counter:       1   Parms: SMR     MR      
 Computing Diagnostic #    704  TRAC48       Counter:       1   Parms: SMR     MR      
 Computing Diagnostic #    716  TRAC49       Counter:       1   Parms: SMR     MR      
 Computing Diagnostic #    728  TRAC50       Counter:       1   Parms: SMR     MR      
 Computing Diagnostic #    740  TRAC51       Counter:       1   Parms: SMR     MR      
 Computing Diagnostic #    752  TRAC52       Counter:       1   Parms: SMR     MR      
 Computing Diagnostic #    764  TRAC53       Counter:       1   Parms: SMR     MR      
 Computing Diagnostic #    776  TRAC54       Counter:       1   Parms: SMR     MR      
 Computing Diagnostic #    788  TRAC55       Counter:       1   Parms: SMR     MR      
 Computing Diagnostic #    800  TRAC56       Counter:       1   Parms: SMR     MR      
 Computing Diagnostic #    812  TRAC57       Counter:       1   Parms: SMR     MR      
 Computing Diagnostic #    824  TRAC58       Counter:       1   Parms: SMR     MR      
 Computing Diagnostic #    836  TRAC59       Counter:       1   Parms: SMR     MR      
 Computing Diagnostic #    848  TRAC60       Counter:       1   Parms: SMR     MR      
 Computing Diagnostic #    860  TRAC61       Counter:       1   Parms: SMR     MR      
 Computing Diagnostic #    872  TRAC62       Counter:       1   Parms: SMR     MR      
 Computing Diagnostic #    884  TRAC63       Counter:       1   Parms: SMR     MR      
 Computing Diagnostic #    896  TRAC64       Counter:       1   Parms: SMR     MR      
 Computing Diagnostic #    908  TRAC65       Counter:       1   Parms: SMR     MR      
 Computing Diagnostic #    920  TRAC66       Counter:       1   Parms: SMR     MR      
 Computing Diagnostic #    932  TRAC67       Counter:       1   Parms: SMR     MR      
 Computing Diagnostic #    944  TRAC68       Counter:       1   Parms: SMR     MR      
 Computing Diagnostic #    956  TRAC69       Counter:       1   Parms: SMR     MR      
 Computing Diagnostic #    968  TRAC70       Counter:       1   Parms: SMR     MR      
 Computing Diagnostic #    980  TRAC71       Counter:       1   Parms: SMR     MR      
 Computing Diagnostic #    992  TRAC72       Counter:       1   Parms: SMR     MR      
 Computing Diagnostic #   1004  TRAC73       Counter:       1   Parms: SMR     MR      
 Computing Diagnostic #   1016  TRAC74       Counter:       1   Parms: SMR     MR      
 Computing Diagnostic #   1028  TRAC75       Counter:       1   Parms: SMR     MR      
 Computing Diagnostic #   1040  TRAC76       Counter:       1   Parms: SMR     MR      
 Computing Diagnostic #   1052  TRAC77       Counter:       1   Parms: SMR     MR      
 Computing Diagnostic #   1064  TRAC78       Counter:       1   Parms: SMR     MR      
 Computing Diagnostic #   1076  TRAC79       Counter:       1   Parms: SMR     MR      
 Computing Diagnostic #   1088  TRAC80       Counter:       1   Parms: SMR     MR      
 Computing Diagnostic #   1100  TRAC81       Counter:       1   Parms: SMR     MR      
 Computing Diagnostic #   1112  TRAC82       Counter:       1   Parms: SMR     MR      
 Computing Diagnostic #   1124  TRAC83       Counter:       1   Parms: SMR     MR      
 Computing Diagnostic #   1136  TRAC84       Counter:       1   Parms: SMR     MR      
 Computing Diagnostic #   1148  TRAC85       Counter:       1   Parms: SMR     MR      
 Computing Diagnostic #   1160  TRAC86       Counter:       1   Parms: SMR     MR      
 Computing Diagnostic #   1172  TRAC87       Counter:       1   Parms: SMR     MR      
 Computing Diagnostic #   1184  TRAC88       Counter:       1   Parms: SMR     MR      
 Computing Diagnostic #   1196  TRAC89       Counter:       1   Parms: SMR     MR      
 Computing Diagnostic #   1208  TRAC90       Counter:       1   Parms: SMR     MR      
 Computing Diagnostic #   1220  TRAC91       Counter:       1   Parms: SMR     MR      
 Computing Diagnostic #   1232  TRAC92       Counter:       1   Parms: SMR     MR      
 Computing Diagnostic #   1244  TRAC93       Counter:       1   Parms: SMR     MR      
 Computing Diagnostic #   1256  TRAC94       Counter:       1   Parms: SMR     MR      
 Computing Diagnostic #   1268  TRAC95       Counter:       1   Parms: SMR     MR      
 Computing Diagnostic #   1280  TRAC96       Counter:       1   Parms: SMR     MR      
 Computing Diagnostic #   1292  TRAC97       Counter:       1   Parms: SMR     MR      
 Computing Diagnostic #   1304  TRAC98       Counter:       1   Parms: SMR     MR      
 Computing Diagnostic #   1316  TRAC99       Counter:       1   Parms: SMR     MR      
 Computing Diagnostic #   1328  TRAC0a       Counter:       1   Parms: SMR     MR      
 Computing Diagnostic #   1340  TRAC0b       Counter:       1   Parms: SMR     MR      
 Computing Diagnostic #   1352  TRAC0c       Counter:       1   Parms: SMR     MR      
 Computing Diagnostic #   1364  TRAC0d       Counter:       1   Parms: SMR     MR      
 Computing Diagnostic #   1376  TRAC0e       Counter:       1   Parms: SMR     MR      
 Computing Diagnostic #   1388  TRAC0f       Counter:       1   Parms: SMR     MR      
 Computing Diagnostic #   1400  TRAC0g       Counter:       1   Parms: SMR     MR      
 Computing Diagnostic #   1412  TRAC0h       Counter:       1   Parms: SMR     MR      
 Computing Diagnostic #   1424  TRAC0i       Counter:       1   Parms: SMR     MR      
 Computing Diagnostic #   1436  TRAC0j       Counter:       1   Parms: SMR     MR      
 Computing Diagnostic #   1448  TRAC0k       Counter:       1   Parms: SMR     MR      
 Computing Diagnostic #   1460  TRAC0l       Counter:       1   Parms: SMR     MR      
 Computing Diagnostic #   1472  TRAC0m       Counter:       1   Parms: SMR     MR      
 Computing Diagnostic #   1484  TRAC0n       Counter:       1   Parms: SMR     MR      
 Computing Diagnostic #   1496  TRAC0o       Counter:       1   Parms: SMR     MR      
 Computing Diagnostic #   1508  TRAC0p       Counter:       1   Parms: SMR     MR      
 Computing Diagnostic #   1520  TRAC0q       Counter:       1   Parms: SMR     MR      
 Computing Diagnostic #   1532  TRAC0r       Counter:       1   Parms: SMR     MR      
 Computing Diagnostic #   1544  TRAC0s       Counter:       1   Parms: SMR     MR      
 Computing Diagnostic #   1556  TRAC0t       Counter:       1   Parms: SMR     MR      
 Computing Diagnostic #   1568  TRAC0u       Counter:       1   Parms: SMR     MR      
 Computing Diagnostic #   1580  TRAC0v       Counter:       1   Parms: SMR     MR      
 Computing Diagnostic #   1592  TRAC0w       Counter:       1   Parms: SMR     MR      
 Computing Diagnostic #   1604  TRAC0x       Counter:       1   Parms: SMR     MR      
 Computing Diagnostic #   1616  TRAC0y       Counter:       1   Parms: SMR     MR      
 Computing Diagnostic #   1628  TRAC0z       Counter:       1   Parms: SMR     MR      
 Computing Diagnostic #   1640  TRAC0A       Counter:       1   Parms: SMR     MR      
 Computing Diagnostic #   1652  TRAC0B       Counter:       1   Parms: SMR     MR      
 Computing Diagnostic #   1664  TRAC0C       Counter:       1   Parms: SMR     MR      
 Computing Diagnostic #   1676  TRAC0D       Counter:       1   Parms: SMR     MR      
 Computing Diagnostic #   1688  TRAC0E       Counter:       1   Parms: SMR     MR      
 Computing Diagnostic #   1700  TRAC0F       Counter:       1   Parms: SMR     MR      
 Computing Diagnostic #   1712  TRAC0G       Counter:       1   Parms: SMR     MR      
 Computing Diagnostic #   1724  TRAC0H       Counter:       1   Parms: SMR     MR      
 Computing Diagnostic #   1736  TRAC0I       Counter:       1   Parms: SMR     MR      
 Computing Diagnostic #   1748  TRAC0J       Counter:       1   Parms: SMR     MR      
 Computing Diagnostic #   1760  TRAC0K       Counter:       1   Parms: SMR     MR      
 Computing Diagnostic #   1772  TRAC0L       Counter:       1   Parms: SMR     MR      
 Computing Diagnostic #   1784  TRAC0M       Counter:       1   Parms: SMR     MR      
 Computing Diagnostic #   1796  TRAC0N       Counter:       1   Parms: SMR     MR      
 Computing Diagnostic #   1808  TRAC0O       Counter:       1   Parms: SMR     MR      
 Computing Diagnostic #   1820  TRAC0P       Counter:       1   Parms: SMR     MR      
 Computing Diagnostic #   1832  TRAC0Q       Counter:       1   Parms: SMR     MR      
 Computing Diagnostic #   1844  TRAC0R       Counter:       1   Parms: SMR     MR      
 Computing Diagnostic #   1856  TRAC0S       Counter:       1   Parms: SMR     MR      
 Computing Diagnostic #   1868  TRAC0T       Counter:       1   Parms: SMR     MR      
 Computing Diagnostic #   1880  TRAC0U       Counter:       1   Parms: SMR     MR      
 Computing Diagnostic #   1892  TRAC0V       Counter:       1   Parms: SMR     MR      
 Computing Diagnostic #   1904  TRAC0W       Counter:       1   Parms: SMR     MR      
 Computing Diagnostic #   1916  TRAC0X       Counter:       1   Parms: SMR     MR      
 Computing Diagnostic #   1928  TRAC0Y       Counter:       1   Parms: SMR     MR      
 Computing Diagnostic #   1940  TRAC0Z       Counter:       1   Parms: SMR     MR      
 Computing Diagnostic #   1952  TRAC1a       Counter:       1   Parms: SMR     MR      
 Computing Diagnostic #   1964  TRAC1b       Counter:       1   Parms: SMR     MR      
 Computing Diagnostic #   1976  TRAC1c       Counter:       1   Parms: SMR     MR      
 Computing Diagnostic #   1988  TRAC1d       Counter:       1   Parms: SMR     MR      
 Computing Diagnostic #   2000  TRAC1e       Counter:       1   Parms: SMR     MR      
 Computing Diagnostic #   2012  TRAC1f       Counter:       1   Parms: SMR     MR      
 Computing Diagnostic #   2024  TRAC1g       Counter:       1   Parms: SMR     MR      
 Computing Diagnostic #   2036  TRAC1h       Counter:       1   Parms: SMR     MR      
 Computing Diagnostic #   2048  TRAC1i       Counter:       1   Parms: SMR     MR      
 Computing Diagnostic #   2060  TRAC1j       Counter:       1   Parms: SMR     MR      
 Computing Diagnostic #   2072  TRAC1k       Counter:       1   Parms: SMR     MR      
 Computing Diagnostic #   2084  TRAC1l       Counter:       1   Parms: SMR     MR      
 Computing Diagnostic #   2096  TRAC1m       Counter:       1   Parms: SMR     MR      
 Computing Diagnostic #   2108  TRAC1n       Counter:       1   Parms: SMR     MR      
 Computing Diagnostic #   2120  TRAC1o       Counter:       1   Parms: SMR     MR      
 Computing Diagnostic #   2132  TRAC1p       Counter:       1   Parms: SMR     MR      
 Computing Diagnostic #   2144  TRAC1q       Counter:       1   Parms: SMR     MR      
 Computing Diagnostic #   2156  TRAC1r       Counter:       1   Parms: SMR     MR      
 Computing Diagnostic #   2168  TRAC1s       Counter:       1   Parms: SMR     MR      
 Computing Diagnostic #   2180  TRAC1t       Counter:       1   Parms: SMR     MR      
 Computing Diagnostic #   2192  TRAC1u       Counter:       1   Parms: SMR     MR      
 Computing Diagnostic #   2204  TRAC1v       Counter:       1   Parms: SMR     MR      
 Computing Diagnostic #   2216  TRAC1w       Counter:       1   Parms: SMR     MR      
 Computing Diagnostic #   2228  TRAC1x       Counter:       1   Parms: SMR     MR      
 Computing Diagnostic #   2245  PAR01        Counter:       2   Parms: SM P    MR      
 Computing Diagnostic #   2252  DIC_c01      Counter:       1   Parms: SM P    MR      
 Computing Diagnostic #   2263  DIC_c02      Counter:       1   Parms: SM P    MR      
 Computing Diagnostic #   2253  c01_DOC      Counter:       1   Parms: SM P    MR      
 Computing Diagnostic #   2264  c02_DOC      Counter:       1   Parms: SM P    MR      
 Computing Diagnostic #   2254  c01_POC      Counter:       1   Parms: SM P    MR      
 Computing Diagnostic #   2265  c02_POC      Counter:       1   Parms: SM P    MR      
 Computing Diagnostic #   2244  PARF         Counter:       1   Parms: SM P    MR      
 Computing Diagnostic #   2241  atten        Counter:       1   Parms: SM P    MR      
 Computing Diagnostic #   2243  surfPAR      Counter:       1   Parms: SM P    MR      
 Computing Diagnostic #   2242  exfPAR       Counter:       1   Parms: SM P    MR      
 Computing Diagnostic #   2246  limn01       Counter:       1   Parms: SM P    MR      
 Computing Diagnostic #   2247  limp01       Counter:       1   Parms: SM P    MR      
 Computing Diagnostic #   2248  limsi01      Counter:       1   Parms: SM P    MR      
 Computing Diagnostic #   2249  limfe01      Counter:       1   Parms: SM P    MR      
 Computing Diagnostic #   2250  limI01       Counter:       1   Parms: SM P    MR      
 Computing Diagnostic #   2251  limT01       Counter:       1   Parms: SM P    MR      
 Computing Diagnostic #   2255  c01_c        Counter:       1   Parms: SM P    MR      
 Computing Diagnostic #   2266  c02_c        Counter:       1   Parms: SM P    MR      
 Computing Diagnostic #   2278  c_c03        Counter:       1   Parms: SM P    MR      
 Computing Diagnostic #   2289  c_c04        Counter:       1   Parms: SM P    MR      
 Computing Diagnostic #   3126  c_DOC        Counter:       1   Parms: SM P    MR      
 Computing Diagnostic #   3127  c_POC        Counter:       1   Parms: SM P    MR      
 Computing Diagnostic #   3128  c_PIC        Counter:       1   Parms: SM P    MR      
 Computing Diagnostic #   3129  n_DON        Counter:       1   Parms: SM P    MR      
 Computing Diagnostic #   3130  n_PON        Counter:       1   Parms: SM P    MR      
 Computing Diagnostic #   3131  p_DOP        Counter:       1   Parms: SM P    MR      
 Computing Diagnostic #   3132  p_POP        Counter:       1   Parms: SM P    MR      
(PID.TID 0000.0001) // =======================================================
(PID.TID 0000.0001) // Begin MONITOR EXF statistics
(PID.TID 0000.0001) // =======================================================
(PID.TID 0000.0001) %MON exf_tsnumber                 =                     2
(PID.TID 0000.0001) %MON exf_time_sec                 =   7.20000000000000000E+03
(PID.TID 0000.0001) %MON exf_ustress_max              =   0.00000000000000000E+00
(PID.TID 0000.0001) %MON exf_ustress_min              =   0.00000000000000000E+00
(PID.TID 0000.0001) %MON exf_ustress_mean             =   0.00000000000000000E+00
(PID.TID 0000.0001) %MON exf_ustress_sd               =   0.00000000000000000E+00
(PID.TID 0000.0001) %MON exf_ustress_del2             =   0.00000000000000000E+00
(PID.TID 0000.0001) %MON exf_vstress_max              =   0.00000000000000000E+00
(PID.TID 0000.0001) %MON exf_vstress_min              =   0.00000000000000000E+00
(PID.TID 0000.0001) %MON exf_vstress_mean             =   0.00000000000000000E+00
(PID.TID 0000.0001) %MON exf_vstress_sd               =   0.00000000000000000E+00
(PID.TID 0000.0001) %MON exf_vstress_del2             =   0.00000000000000000E+00
(PID.TID 0000.0001) %MON exf_hflux_max                =   0.00000000000000000E+00
(PID.TID 0000.0001) %MON exf_hflux_min                =   0.00000000000000000E+00
(PID.TID 0000.0001) %MON exf_hflux_mean               =   0.00000000000000000E+00
(PID.TID 0000.0001) %MON exf_hflux_sd                 =   0.00000000000000000E+00
(PID.TID 0000.0001) %MON exf_hflux_del2               =   0.00000000000000000E+00
(PID.TID 0000.0001) %MON exf_sflux_max                =   0.00000000000000000E+00
(PID.TID 0000.0001) %MON exf_sflux_min                =   0.00000000000000000E+00
(PID.TID 0000.0001) %MON exf_sflux_mean               =   0.00000000000000000E+00
(PID.TID 0000.0001) %MON exf_sflux_sd                 =   0.00000000000000000E+00
(PID.TID 0000.0001) %MON exf_sflux_del2               =   0.00000000000000000E+00
(PID.TID 0000.0001) %MON exf_uwind_max                =   0.00000000000000000E+00
(PID.TID 0000.0001) %MON exf_uwind_min                =   0.00000000000000000E+00
(PID.TID 0000.0001) %MON exf_uwind_mean               =   0.00000000000000000E+00
(PID.TID 0000.0001) %MON exf_uwind_sd                 =   0.00000000000000000E+00
(PID.TID 0000.0001) %MON exf_uwind_del2               =   0.00000000000000000E+00
(PID.TID 0000.0001) %MON exf_vwind_max                =   0.00000000000000000E+00
(PID.TID 0000.0001) %MON exf_vwind_min                =   0.00000000000000000E+00
(PID.TID 0000.0001) %MON exf_vwind_mean               =   0.00000000000000000E+00
(PID.TID 0000.0001) %MON exf_vwind_sd                 =   0.00000000000000000E+00
(PID.TID 0000.0001) %MON exf_vwind_del2               =   0.00000000000000000E+00
(PID.TID 0000.0001) %MON exf_wspeed_max               =   0.00000000000000000E+00
(PID.TID 0000.0001) %MON exf_wspeed_min               =   0.00000000000000000E+00
(PID.TID 0000.0001) %MON exf_wspeed_mean              =   0.00000000000000000E+00
(PID.TID 0000.0001) %MON exf_wspeed_sd                =   0.00000000000000000E+00
(PID.TID 0000.0001) %MON exf_wspeed_del2              =   0.00000000000000000E+00
(PID.TID 0000.0001) %MON exf_evap_max                 =   0.00000000000000000E+00
(PID.TID 0000.0001) %MON exf_evap_min                 =   0.00000000000000000E+00
(PID.TID 0000.0001) %MON exf_evap_mean                =   0.00000000000000000E+00
(PID.TID 0000.0001) %MON exf_evap_sd                  =   0.00000000000000000E+00
(PID.TID 0000.0001) %MON exf_evap_del2                =   0.00000000000000000E+00
(PID.TID 0000.0001) // =======================================================
(PID.TID 0000.0001) // End MONITOR EXF statistics
(PID.TID 0000.0001) // =======================================================
 EXTERNAL_FIELDS_LOAD,         2 : iP,iLd,i0,i1=   12    1   12    1 ; Wght=  0.4972222222  0.5027777778
 exf          12           1  0.49722222222222223       0.50277777777777777     
 exf          12           1  0.49722222222222223       0.50277777777777777     
 PAR           1   561.06997637739380        685.82702222674970       0.20077980892176928     
 PAR           2   375.38775984506833        459.00716680721501       0.20110630591069795     
 PAR           3   250.96949993457139        307.00167760274644       0.20152179453288699     
 PAR           4   167.63219408837884        205.16399255287118       0.20203736457645852     
 PAR           5   111.84284757135531        136.96629776612650       0.20264015457899590     
 PAR           6   74.531535000640943        91.327740888700646       0.20323226027626942     
 PAR           7   49.609155404252292        60.824341601983512       0.20381466268674364     
 PAR           8   32.996782612025541        40.461897903108543       0.20395067866552730     
 PAR           9   21.945166050174283        26.908961743527691       0.20391249167916889     
 PAR          10   14.603108234686049        17.897023213300187       0.20339999924167246     
 PAR          11   9.7302218686432358        11.915432391878335       0.20259770113023404     
 PAR          12   6.4947034748260855        7.9457643247219378       0.20165200263631874     
 PAR          13   4.3411351030463310        5.3086363378131223       0.20119913367153536     
 PAR          14   2.9038073789288652        3.5499613806027646       0.20091395953200791     
 PAR          15   1.7580262155967432        2.3752645141424042       0.30091709433781721     
 PAR          16  0.96374408362387021        1.3011839971184416       0.30020411002017300     
 PAR          17  0.52872404046242538       0.71381346587178196       0.30015504282375854     
 PAR          18  0.29009402376672766       0.39162767911851937       0.30010649996144950     
 PAR          19  0.15918086696465880       0.21488405215531983       0.30005750655142405     
 PAR          20   7.9041460115609308E-002  0.11791730541876370       0.40001105086200689     
 PAR          21   3.5515224306402637E-002   5.2982489678002002E-002  0.40000001727818013     
 PAR          22   1.5958018672071871E-002   2.3806566380699726E-002  0.40000000001186059     
 PAR          23   7.1703999992002694E-003   1.0696979810773936E-002  0.40000000000000280     
 PAR          24   1.7681988700496789E-003   4.8064628575578590E-003   1.0000000000000000     
 PAR          25   2.3929969489683186E-004   6.5048401219385172E-004   1.0000000000000000     
 PAR          26   1.1914030270237551E-005   8.8033438031143152E-005   2.0000000000000000     
 PAR          27   8.0276104506349100E-008   1.6123886611121760E-006   3.0000000000001421     
 PAR          28   1.9898456288134981E-010   3.9967119033628252E-009   3.0000000296406446     
 PAR          29   1.8145039484540109E-013   9.9068577426776308E-012   4.0000001878835230     
 PAR          30   8.2378329965494225E-018   3.3233792837983338E-015   6.0000000773326621     
 PAR          31   6.8499934839423328E-024   2.0419544892113007E-020   8.0000001030861085     
 PAR          32   7.7086513407052466E-031   2.2979165783550875E-027   8.0000000000067732     
 PAR          33   8.6749442547024016E-038   2.5859644363196875E-034   8.0000000000000000     
 PAR          34   1.3211922528562877E-045   2.9101195965902644E-041   10.000000000000000     
 PAR          35   2.7231801979124963E-054   5.9982035482414584E-050   10.000000000000000     
 fe   1.3003898706071589E-003
 fe   1.3003898706071589E-003   3.1596775921571428E-004
(PID.TID 0000.0001) // =======================================================
(PID.TID 0000.0001) // Begin MONITOR dynamic field statistics
(PID.TID 0000.0001) // =======================================================
(PID.TID 0000.0001) %MON time_tsnumber                =                     3
(PID.TID 0000.0001) %MON time_secondsf                =   1.08000000000000000E+04
(PID.TID 0000.0001) %MON dynstat_eta_max              =   0.00000000000000000E+00
(PID.TID 0000.0001) %MON dynstat_eta_min              =   0.00000000000000000E+00
(PID.TID 0000.0001) %MON dynstat_eta_mean             =   0.00000000000000000E+00
(PID.TID 0000.0001) %MON dynstat_eta_sd               =   0.00000000000000000E+00
(PID.TID 0000.0001) %MON dynstat_eta_del2             =   0.00000000000000000E+00
(PID.TID 0000.0001) %MON dynstat_uvel_max             =   0.00000000000000000E+00
(PID.TID 0000.0001) %MON dynstat_uvel_min             =   0.00000000000000000E+00
(PID.TID 0000.0001) %MON dynstat_uvel_mean            =   0.00000000000000000E+00
(PID.TID 0000.0001) %MON dynstat_uvel_sd              =   0.00000000000000000E+00
(PID.TID 0000.0001) %MON dynstat_uvel_del2            =   0.00000000000000000E+00
(PID.TID 0000.0001) %MON dynstat_vvel_max             =   0.00000000000000000E+00
(PID.TID 0000.0001) %MON dynstat_vvel_min             =   0.00000000000000000E+00
(PID.TID 0000.0001) %MON dynstat_vvel_mean            =   0.00000000000000000E+00
(PID.TID 0000.0001) %MON dynstat_vvel_sd              =   0.00000000000000000E+00
(PID.TID 0000.0001) %MON dynstat_vvel_del2            =   0.00000000000000000E+00
(PID.TID 0000.0001) %MON dynstat_wvel_max             =   0.00000000000000000E+00
(PID.TID 0000.0001) %MON dynstat_wvel_min             =   0.00000000000000000E+00
(PID.TID 0000.0001) %MON dynstat_wvel_mean            =   0.00000000000000000E+00
(PID.TID 0000.0001) %MON dynstat_wvel_sd              =   0.00000000000000000E+00
(PID.TID 0000.0001) %MON dynstat_wvel_del2            =   0.00000000000000000E+00
(PID.TID 0000.0001) %MON dynstat_theta_max            =   2.63166417289118648E+01
(PID.TID 0000.0001) %MON dynstat_theta_min            =   2.67370076727811634E+00
(PID.TID 0000.0001) %MON dynstat_theta_mean           =   5.47351575576424132E+00
(PID.TID 0000.0001) %MON dynstat_theta_sd             =   5.19684804904810438E+00
(PID.TID 0000.0001) %MON dynstat_theta_del2           =   0.00000000000000000E+00
(PID.TID 0000.0001) %MON dynstat_salt_max             =   3.50000000000000000E+01
(PID.TID 0000.0001) %MON dynstat_salt_min             =   3.50000000000000000E+01
(PID.TID 0000.0001) %MON dynstat_salt_mean            =   3.50000000000000071E+01
(PID.TID 0000.0001) %MON dynstat_salt_sd              =   7.10542735760100186E-15
(PID.TID 0000.0001) %MON dynstat_salt_del2            =   0.00000000000000000E+00
(PID.TID 0000.0001) %MON dynstat_sst_max              =   2.63166417289118648E+01
(PID.TID 0000.0001) %MON dynstat_sst_min              =   2.63166417289118648E+01
(PID.TID 0000.0001) %MON dynstat_sst_mean             =   2.63166417289118648E+01
(PID.TID 0000.0001) %MON dynstat_sst_sd               =   0.00000000000000000E+00
(PID.TID 0000.0001) %MON dynstat_sst_del2             =   0.00000000000000000E+00
(PID.TID 0000.0001) %MON dynstat_sss_max              =   3.50000000000000000E+01
(PID.TID 0000.0001) %MON dynstat_sss_min              =   3.50000000000000000E+01
(PID.TID 0000.0001) %MON dynstat_sss_mean             =   3.50000000000000000E+01
(PID.TID 0000.0001) %MON dynstat_sss_sd               =   0.00000000000000000E+00
(PID.TID 0000.0001) %MON dynstat_sss_del2             =   0.00000000000000000E+00
(PID.TID 0000.0001) %MON forcing_qnet_max             =   0.00000000000000000E+00
(PID.TID 0000.0001) %MON forcing_qnet_min             =   0.00000000000000000E+00
(PID.TID 0000.0001) %MON forcing_qnet_mean            =   0.00000000000000000E+00
(PID.TID 0000.0001) %MON forcing_qnet_sd              =   0.00000000000000000E+00
(PID.TID 0000.0001) %MON forcing_qnet_del2            =   0.00000000000000000E+00
(PID.TID 0000.0001) %MON forcing_qsw_max              =   0.00000000000000000E+00
(PID.TID 0000.0001) %MON forcing_qsw_min              =   0.00000000000000000E+00
(PID.TID 0000.0001) %MON forcing_qsw_mean             =   0.00000000000000000E+00
(PID.TID 0000.0001) %MON forcing_qsw_sd               =   0.00000000000000000E+00
(PID.TID 0000.0001) %MON forcing_qsw_del2             =   0.00000000000000000E+00
(PID.TID 0000.0001) %MON forcing_empmr_max            =   0.00000000000000000E+00
(PID.TID 0000.0001) %MON forcing_empmr_min            =   0.00000000000000000E+00
(PID.TID 0000.0001) %MON forcing_empmr_mean           =   0.00000000000000000E+00
(PID.TID 0000.0001) %MON forcing_empmr_sd             =   0.00000000000000000E+00
(PID.TID 0000.0001) %MON forcing_empmr_del2           =   0.00000000000000000E+00
(PID.TID 0000.0001) %MON forcing_fu_max               =   0.00000000000000000E+00
(PID.TID 0000.0001) %MON forcing_fu_min               =   0.00000000000000000E+00
(PID.TID 0000.0001) %MON forcing_fu_mean              =   0.00000000000000000E+00
(PID.TID 0000.0001) %MON forcing_fu_sd                =   0.00000000000000000E+00
(PID.TID 0000.0001) %MON forcing_fu_del2              =   0.00000000000000000E+00
(PID.TID 0000.0001) %MON forcing_fv_max               =   0.00000000000000000E+00
(PID.TID 0000.0001) %MON forcing_fv_min               =   0.00000000000000000E+00
(PID.TID 0000.0001) %MON forcing_fv_mean              =   0.00000000000000000E+00
(PID.TID 0000.0001) %MON forcing_fv_sd                =   0.00000000000000000E+00
(PID.TID 0000.0001) %MON forcing_fv_del2              =   0.00000000000000000E+00
(PID.TID 0000.0001) %MON advcfl_uvel_max              =   0.00000000000000000E+00
(PID.TID 0000.0001) %MON advcfl_vvel_max              =   0.00000000000000000E+00
(PID.TID 0000.0001) %MON advcfl_wvel_max              =   0.00000000000000000E+00
(PID.TID 0000.0001) %MON advcfl_W_hf_max              =   0.00000000000000000E+00
(PID.TID 0000.0001) %MON pe_b_mean                    =   0.00000000000000000E+00
(PID.TID 0000.0001) %MON ke_max                       =   0.00000000000000000E+00
(PID.TID 0000.0001) %MON ke_mean                      =   0.00000000000000000E+00
(PID.TID 0000.0001) %MON ke_vol                       =   4.11997678834846094E+13
(PID.TID 0000.0001) %MON vort_r_min                   =   0.00000000000000000E+00
(PID.TID 0000.0001) %MON vort_r_max                   =   0.00000000000000000E+00
(PID.TID 0000.0001) %MON vort_a_mean                  =  -4.50678018366247268E-05
(PID.TID 0000.0001) %MON vort_a_sd                    =  -4.13590306276513837E-25
(PID.TID 0000.0001) %MON vort_p_mean                  =  -4.50678018366247268E-05
(PID.TID 0000.0001) %MON vort_p_sd                    =   0.00000000000000000E+00
(PID.TID 0000.0001) %MON surfExpan_theta_mean         =   0.00000000000000000E+00
(PID.TID 0000.0001) %MON surfExpan_salt_mean          =   0.00000000000000000E+00
(PID.TID 0000.0001) // =======================================================
(PID.TID 0000.0001) // End MONITOR dynamic field statistics
(PID.TID 0000.0001) // =======================================================
(PID.TID 0000.0001) // =======================================================
(PID.TID 0000.0001) // Begin MONITOR ptracer field statistics
(PID.TID 0000.0001) // =======================================================
(PID.TID 0000.0001) %MON trcstat_ptracer01_max        =   2.00000000000038403E+03
(PID.TID 0000.0001) %MON trcstat_ptracer01_min        =   1.99999931313724142E+03
(PID.TID 0000.0001) %MON trcstat_ptracer01_mean       =   1.99999998057498101E+03
(PID.TID 0000.0001) %MON trcstat_ptracer01_sd         =   1.05969835632436498E-04
(PID.TID 0000.0001) %MON trcstat_ptracer01_del2       =   0.00000000000000000E+00
(PID.TID 0000.0001) %MON trcstat_ptracer02_max        =   2.56246360602644940E-02
(PID.TID 0000.0001) %MON trcstat_ptracer02_min        =   1.87676028711844704E-07
(PID.TID 0000.0001) %MON trcstat_ptracer02_mean       =   6.04249747488411725E-04
(PID.TID 0000.0001) %MON trcstat_ptracer02_sd         =   3.25152624103415772E-03
(PID.TID 0000.0001) %MON trcstat_ptracer02_del2       =   0.00000000000000000E+00
(PID.TID 0000.0001) %MON trcstat_ptracer03_max        =   1.84348077424374493E-02
(PID.TID 0000.0001) %MON trcstat_ptracer03_min        =   3.87809931881884839E-06
(PID.TID 0000.0001) %MON trcstat_ptracer03_mean       =   6.05073758852144668E-04
(PID.TID 0000.0001) %MON trcstat_ptracer03_sd         =   1.94797314012442073E-03
(PID.TID 0000.0001) %MON trcstat_ptracer03_del2       =   0.00000000000000000E+00
(PID.TID 0000.0001) %MON trcstat_ptracer04_max        =   3.39034946359087712E+01
(PID.TID 0000.0001) %MON trcstat_ptracer04_min        =   4.65563488684711604E-02
(PID.TID 0000.0001) %MON trcstat_ptracer04_mean       =   2.35023936073257360E+01
(PID.TID 0000.0001) %MON trcstat_ptracer04_sd         =   7.81619089302761072E+00
(PID.TID 0000.0001) %MON trcstat_ptracer04_del2       =   0.00000000000000000E+00
(PID.TID 0000.0001) %MON trcstat_ptracer05_max        =   2.24369973993343086E+00
(PID.TID 0000.0001) %MON trcstat_ptracer05_min        =   2.10254383757313340E-01
(PID.TID 0000.0001) %MON trcstat_ptracer05_mean       =   1.58213404902819499E+00
(PID.TID 0000.0001) %MON trcstat_ptracer05_sd         =   4.67349808681892909E-01
(PID.TID 0000.0001) %MON trcstat_ptracer05_del2       =   0.00000000000000000E+00
(PID.TID 0000.0001) %MON trcstat_ptracer06_max        =   3.93874008823956672E+01
(PID.TID 0000.0001) %MON trcstat_ptracer06_min        =   1.22478913458862060E+00
(PID.TID 0000.0001) %MON trcstat_ptracer06_mean       =   2.96218903105505973E+01
(PID.TID 0000.0001) %MON trcstat_ptracer06_sd         =   1.12705839276619919E+01
(PID.TID 0000.0001) %MON trcstat_ptracer06_del2       =   0.00000000000000000E+00
(PID.TID 0000.0001) %MON trcstat_ptracer07_max        =   1.30038987060715895E-03
(PID.TID 0000.0001) %MON trcstat_ptracer07_min        =   1.29995617563671687E-03
(PID.TID 0000.0001) %MON trcstat_ptracer07_mean       =   1.29995771228300300E-03
(PID.TID 0000.0001) %MON trcstat_ptracer07_sd         =   2.31573536803524938E-08
(PID.TID 0000.0001) %MON trcstat_ptracer07_del2       =   0.00000000000000000E+00
(PID.TID 0000.0001) %MON trcstat_ptracer08_max        =   5.67761269060145109E-04
(PID.TID 0000.0001) %MON trcstat_ptracer08_min        =   9.75936663580243451E-36
(PID.TID 0000.0001) %MON trcstat_ptracer08_mean       =   1.69282696293672625E-05
(PID.TID 0000.0001) %MON trcstat_ptracer08_sd         =   8.87557274466204918E-05
(PID.TID 0000.0001) %MON trcstat_ptracer08_del2       =   0.00000000000000000E+00
(PID.TID 0000.0001) %MON trcstat_ptracer09_max        =   8.17864621168061523E-02
(PID.TID 0000.0001) %MON trcstat_ptracer09_min        =   4.32286097229251389E-33
(PID.TID 0000.0001) %MON trcstat_ptracer09_mean       =   3.43372885945762664E-03
(PID.TID 0000.0001) %MON trcstat_ptracer09_sd         =   1.47833821597984447E-02
(PID.TID 0000.0001) %MON trcstat_ptracer09_del2       =   0.00000000000000000E+00
(PID.TID 0000.0001) %MON trcstat_ptracer10_max        =   5.11165388230038452E-03
(PID.TID 0000.0001) %MON trcstat_ptracer10_min        =   2.70178810768282118E-34
(PID.TID 0000.0001) %MON trcstat_ptracer10_mean       =   2.14608053716101665E-04
(PID.TID 0000.0001) %MON trcstat_ptracer10_sd         =   9.23961384987402796E-04
(PID.TID 0000.0001) %MON trcstat_ptracer10_del2       =   0.00000000000000000E+00
(PID.TID 0000.0001) %MON trcstat_ptracer11_max        =   5.11165352348331338E-06
(PID.TID 0000.0001) %MON trcstat_ptracer11_min        =   2.70178404843970285E-37
(PID.TID 0000.0001) %MON trcstat_ptracer11_mean       =   2.14608054022221799E-07
(PID.TID 0000.0001) %MON trcstat_ptracer11_sd         =   9.23961384645659719E-07
(PID.TID 0000.0001) %MON trcstat_ptracer11_del2       =   0.00000000000000000E+00
(PID.TID 0000.0001) %MON trcstat_ptracer12_max        =   2.90312142097025371E-04
(PID.TID 0000.0001) %MON trcstat_ptracer12_min        =   1.20364174807530704E-29
(PID.TID 0000.0001) %MON trcstat_ptracer12_mean       =   8.65936172687652147E-06
(PID.TID 0000.0001) %MON trcstat_ptracer12_sd         =   4.52884000355211177E-05
(PID.TID 0000.0001) %MON trcstat_ptracer12_del2       =   0.00000000000000000E+00
(PID.TID 0000.0001) %MON trcstat_ptracer13_max        =   4.34817753927851935E-03
(PID.TID 0000.0001) %MON trcstat_ptracer13_min        =   1.88139200276464855E-05
(PID.TID 0000.0001) %MON trcstat_ptracer13_mean       =   1.26090928195252074E-03
(PID.TID 0000.0001) %MON trcstat_ptracer13_sd         =   1.54274631018401216E-03
(PID.TID 0000.0001) %MON trcstat_ptracer13_del2       =   0.00000000000000000E+00
(PID.TID 0000.0001) %MON trcstat_ptracer14_max        =   2.71761096204907460E-04
(PID.TID 0000.0001) %MON trcstat_ptracer14_min        =   1.17587000172790534E-06
(PID.TID 0000.0001) %MON trcstat_ptracer14_mean       =   7.88068301220325461E-05
(PID.TID 0000.0001) %MON trcstat_ptracer14_sd         =   9.64216443865007600E-05
(PID.TID 0000.0001) %MON trcstat_ptracer14_del2       =   0.00000000000000000E+00
(PID.TID 0000.0001) %MON trcstat_ptracer15_max        =   1.62425785549356917E-02
(PID.TID 0000.0001) %MON trcstat_ptracer15_min        =   1.13968717235658182E-03
(PID.TID 0000.0001) %MON trcstat_ptracer15_mean       =   5.48792518422809225E-03
(PID.TID 0000.0001) %MON trcstat_ptracer15_sd         =   5.16831792845252706E-03
(PID.TID 0000.0001) %MON trcstat_ptracer15_del2       =   0.00000000000000000E+00
(PID.TID 0000.0001) %MON trcstat_ptracer16_max        =   2.71761112103584298E-07
(PID.TID 0000.0001) %MON trcstat_ptracer16_min        =   1.17586987331361671E-09
(PID.TID 0000.0001) %MON trcstat_ptracer16_mean       =   7.88068306473370065E-08
(PID.TID 0000.0001) %MON trcstat_ptracer16_sd         =   9.64216464416152924E-08
(PID.TID 0000.0001) %MON trcstat_ptracer16_del2       =   0.00000000000000000E+00
(PID.TID 0000.0001) %MON trcstat_ptracer17_max        =   0.00000000000000000E+00
(PID.TID 0000.0001) %MON trcstat_ptracer17_min        =   0.00000000000000000E+00
(PID.TID 0000.0001) %MON trcstat_ptracer17_mean       =   0.00000000000000000E+00
(PID.TID 0000.0001) %MON trcstat_ptracer17_sd         =   0.00000000000000000E+00
(PID.TID 0000.0001) %MON trcstat_ptracer17_del2       =   0.00000000000000000E+00
(PID.TID 0000.0001) %MON trcstat_ptracer18_max        =   8.76943159911776349E-04
(PID.TID 0000.0001) %MON trcstat_ptracer18_min        =   2.03640509106732632E-29
(PID.TID 0000.0001) %MON trcstat_ptracer18_mean       =   2.62262070447106431E-05
(PID.TID 0000.0001) %MON trcstat_ptracer18_sd         =   1.37321290713611125E-04
(PID.TID 0000.0001) %MON trcstat_ptracer18_del2       =   0.00000000000000000E+00
(PID.TID 0000.0001) %MON trcstat_ptracer19_max        =   9.07643978232555693E-04
(PID.TID 0000.0001) %MON trcstat_ptracer19_min        =   2.03640509106732632E-29
(PID.TID 0000.0001) %MON trcstat_ptracer19_mean       =   2.69532995077787409E-05
(PID.TID 0000.0001) %MON trcstat_ptracer19_sd         =   1.41613923205907217E-04
(PID.TID 0000.0001) %MON trcstat_ptracer19_del2       =   0.00000000000000000E+00
(PID.TID 0000.0001) %MON trcstat_ptracer20_max        =   8.70545533761426897E-04
(PID.TID 0000.0001) %MON trcstat_ptracer20_min        =   5.89829420739052518E-36
(PID.TID 0000.0001) %MON trcstat_ptracer20_mean       =   2.59577056732676762E-05
(PID.TID 0000.0001) %MON trcstat_ptracer20_sd         =   1.36089451101607177E-04
(PID.TID 0000.0001) %MON trcstat_ptracer20_del2       =   0.00000000000000000E+00
(PID.TID 0000.0001) %MON trcstat_ptracer21_max        =   8.89358433639786004E-04
(PID.TID 0000.0001) %MON trcstat_ptracer21_min        =   5.89829420739052518E-36
(PID.TID 0000.0001) %MON trcstat_ptracer21_mean       =   2.64929884835270325E-05
(PID.TID 0000.0001) %MON trcstat_ptracer21_sd         =   1.39063592749794269E-04
(PID.TID 0000.0001) %MON trcstat_ptracer21_del2       =   0.00000000000000000E+00
(PID.TID 0000.0001) %MON trcstat_ptracer22_max        =   8.98657449629082093E-04
(PID.TID 0000.0001) %MON trcstat_ptracer22_min        =   2.03640509106732632E-29
(PID.TID 0000.0001) %MON trcstat_ptracer22_mean       =   2.67185288922371255E-05
(PID.TID 0000.0001) %MON trcstat_ptracer22_sd         =   1.40269505741391035E-04
(PID.TID 0000.0001) %MON trcstat_ptracer22_del2       =   0.00000000000000000E+00
(PID.TID 0000.0001) %MON trcstat_ptracer23_max        =   8.70545533761495202E-04
(PID.TID 0000.0001) %MON trcstat_ptracer23_min        =   5.89829420739052518E-36
(PID.TID 0000.0001) %MON trcstat_ptracer23_mean       =   2.59577056732697870E-05
(PID.TID 0000.0001) %MON trcstat_ptracer23_sd         =   1.36089451101618507E-04
(PID.TID 0000.0001) %MON trcstat_ptracer23_del2       =   0.00000000000000000E+00
(PID.TID 0000.0001) %MON trcstat_ptracer24_max        =   8.90141501010711001E-04
(PID.TID 0000.0001) %MON trcstat_ptracer24_min        =   5.89829420739052518E-36
(PID.TID 0000.0001) %MON trcstat_ptracer24_mean       =   2.65465021539869742E-05
(PID.TID 0000.0001) %MON trcstat_ptracer24_sd         =   1.39299777079556690E-04
(PID.TID 0000.0001) %MON trcstat_ptracer24_del2       =   0.00000000000000000E+00
(PID.TID 0000.0001) %MON trcstat_ptracer25_max        =   8.83315244034219666E-04
(PID.TID 0000.0001) %MON trcstat_ptracer25_min        =   5.89829420739052518E-36
(PID.TID 0000.0001) %MON trcstat_ptracer25_mean       =   2.62520772344459899E-05
(PID.TID 0000.0001) %MON trcstat_ptracer25_sd         =   1.37851544774175158E-04
(PID.TID 0000.0001) %MON trcstat_ptracer25_del2       =   0.00000000000000000E+00
(PID.TID 0000.0001) %MON trcstat_ptracer26_max        =   8.70545533761570988E-04
(PID.TID 0000.0001) %MON trcstat_ptracer26_min        =   5.89829420739052518E-36
(PID.TID 0000.0001) %MON trcstat_ptracer26_mean       =   2.59578179052509622E-05
(PID.TID 0000.0001) %MON trcstat_ptracer26_sd         =   1.36089437958324843E-04
(PID.TID 0000.0001) %MON trcstat_ptracer26_del2       =   0.00000000000000000E+00
(PID.TID 0000.0001) %MON trcstat_ptracer27_max        =   8.86520933860990398E-04
(PID.TID 0000.0001) %MON trcstat_ptracer27_min        =   5.89829420739052518E-36
(PID.TID 0000.0001) %MON trcstat_ptracer27_mean       =   2.64126606017417053E-05
(PID.TID 0000.0001) %MON trcstat_ptracer27_sd         =   1.38641231856370775E-04
(PID.TID 0000.0001) %MON trcstat_ptracer27_del2       =   0.00000000000000000E+00
(PID.TID 0000.0001) %MON trcstat_ptracer28_max        =   8.70490461959244751E-04
(PID.TID 0000.0001) %MON trcstat_ptracer28_min        =   2.03640509106731090E-29
(PID.TID 0000.0001) %MON trcstat_ptracer28_mean       =   2.59577056732699191E-05
(PID.TID 0000.0001) %MON trcstat_ptracer28_sd         =   1.36037512173421498E-04
(PID.TID 0000.0001) %MON trcstat_ptracer28_del2       =   0.00000000000000000E+00
(PID.TID 0000.0001) %MON trcstat_ptracer29_max        =   8.90149401794834076E-04
(PID.TID 0000.0001) %MON trcstat_ptracer29_min        =   5.89829420739052518E-36
(PID.TID 0000.0001) %MON trcstat_ptracer29_mean       =   2.65379581146182190E-05
(PID.TID 0000.0001) %MON trcstat_ptracer29_sd         =   1.39146230843878612E-04
(PID.TID 0000.0001) %MON trcstat_ptracer29_del2       =   0.00000000000000000E+00
(PID.TID 0000.0001) %MON trcstat_ptracer30_max        =   9.01974909454982400E-04
(PID.TID 0000.0001) %MON trcstat_ptracer30_min        =   2.03640509106731090E-29
(PID.TID 0000.0001) %MON trcstat_ptracer30_mean       =   2.68120214367598414E-05
(PID.TID 0000.0001) %MON trcstat_ptracer30_sd         =   1.40755544757164891E-04
(PID.TID 0000.0001) %MON trcstat_ptracer30_del2       =   0.00000000000000000E+00
(PID.TID 0000.0001) %MON trcstat_ptracer31_max        =   8.70490462161794100E-04
(PID.TID 0000.0001) %MON trcstat_ptracer31_min        =   2.03640509106732632E-29
(PID.TID 0000.0001) %MON trcstat_ptracer31_mean       =   2.59577056789299085E-05
(PID.TID 0000.0001) %MON trcstat_ptracer31_sd         =   1.36037512203890750E-04
(PID.TID 0000.0001) %MON trcstat_ptracer31_del2       =   0.00000000000000000E+00
(PID.TID 0000.0001) %MON trcstat_ptracer32_max        =   8.70545533761325416E-04
(PID.TID 0000.0001) %MON trcstat_ptracer32_min        =   5.89829420739052518E-36
(PID.TID 0000.0001) %MON trcstat_ptracer32_mean       =   2.59577056732632852E-05
(PID.TID 0000.0001) %MON trcstat_ptracer32_sd         =   1.36089451101587471E-04
(PID.TID 0000.0001) %MON trcstat_ptracer32_del2       =   0.00000000000000000E+00
(PID.TID 0000.0001) %MON trcstat_ptracer33_max        =   8.70545533761386782E-04
(PID.TID 0000.0001) %MON trcstat_ptracer33_min        =   5.89829420739052518E-36
(PID.TID 0000.0001) %MON trcstat_ptracer33_mean       =   2.59577056732650572E-05
(PID.TID 0000.0001) %MON trcstat_ptracer33_sd         =   1.36089451101597338E-04
(PID.TID 0000.0001) %MON trcstat_ptracer33_del2       =   0.00000000000000000E+00
(PID.TID 0000.0001) %MON trcstat_ptracer34_max        =   8.70545533761352846E-04
(PID.TID 0000.0001) %MON trcstat_ptracer34_min        =   5.89829420739052518E-36
(PID.TID 0000.0001) %MON trcstat_ptracer34_mean       =   2.59577056732640746E-05
(PID.TID 0000.0001) %MON trcstat_ptracer34_sd         =   1.36089451101591862E-04
(PID.TID 0000.0001) %MON trcstat_ptracer34_del2       =   0.00000000000000000E+00
(PID.TID 0000.0001) %MON trcstat_ptracer35_max        =   8.70545533761430909E-04
(PID.TID 0000.0001) %MON trcstat_ptracer35_min        =   5.89829420739052518E-36
(PID.TID 0000.0001) %MON trcstat_ptracer35_mean       =   2.59577056732678049E-05
(PID.TID 0000.0001) %MON trcstat_ptracer35_sd         =   1.36089451101607854E-04
(PID.TID 0000.0001) %MON trcstat_ptracer35_del2       =   0.00000000000000000E+00
(PID.TID 0000.0001) %MON trcstat_ptracer36_max        =   8.70545533761720607E-04
(PID.TID 0000.0001) %MON trcstat_ptracer36_min        =   5.89829420739052518E-36
(PID.TID 0000.0001) %MON trcstat_ptracer36_mean       =   2.59577056732760246E-05
(PID.TID 0000.0001) %MON trcstat_ptracer36_sd         =   1.36089451101644148E-04
(PID.TID 0000.0001) %MON trcstat_ptracer36_del2       =   0.00000000000000000E+00
(PID.TID 0000.0001) %MON trcstat_ptracer37_max        =   8.80477945161799256E-04
(PID.TID 0000.0001) %MON trcstat_ptracer37_min        =   5.89829420739052518E-36
(PID.TID 0000.0001) %MON trcstat_ptracer37_mean       =   2.63221017744219891E-05
(PID.TID 0000.0001) %MON trcstat_ptracer37_sd         =   1.37933512447578345E-04
(PID.TID 0000.0001) %MON trcstat_ptracer37_del2       =   0.00000000000000000E+00
(PID.TID 0000.0001) %MON trcstat_ptracer38_max        =   8.70545533761705754E-04
(PID.TID 0000.0001) %MON trcstat_ptracer38_min        =   5.89829420739052518E-36
(PID.TID 0000.0001) %MON trcstat_ptracer38_mean       =   2.59577056732755977E-05
(PID.TID 0000.0001) %MON trcstat_ptracer38_sd         =   1.36089451101641871E-04
(PID.TID 0000.0001) %MON trcstat_ptracer38_del2       =   0.00000000000000000E+00
(PID.TID 0000.0001) %MON trcstat_ptracer39_max        =   8.70490461959746195E-04
(PID.TID 0000.0001) %MON trcstat_ptracer39_min        =   2.03640509106731090E-29
(PID.TID 0000.0001) %MON trcstat_ptracer39_mean       =   2.59577056732848168E-05
(PID.TID 0000.0001) %MON trcstat_ptracer39_sd         =   1.36037512173499479E-04
(PID.TID 0000.0001) %MON trcstat_ptracer39_del2       =   0.00000000000000000E+00
(PID.TID 0000.0001) %MON trcstat_ptracer40_max        =   8.84864886264786999E-04
(PID.TID 0000.0001) %MON trcstat_ptracer40_min        =   5.89829420739052518E-36
(PID.TID 0000.0001) %MON trcstat_ptracer40_mean       =   2.64081121909962988E-05
(PID.TID 0000.0001) %MON trcstat_ptracer40_sd         =   1.38401238445604778E-04
(PID.TID 0000.0001) %MON trcstat_ptracer40_del2       =   0.00000000000000000E+00
(PID.TID 0000.0001) %MON trcstat_ptracer41_max        =   8.70490462161795293E-04
(PID.TID 0000.0001) %MON trcstat_ptracer41_min        =   2.03640509106732632E-29
(PID.TID 0000.0001) %MON trcstat_ptracer41_mean       =   2.59577056789299458E-05
(PID.TID 0000.0001) %MON trcstat_ptracer41_sd         =   1.36037512203890940E-04
(PID.TID 0000.0001) %MON trcstat_ptracer41_del2       =   0.00000000000000000E+00
(PID.TID 0000.0001) %MON trcstat_ptracer42_max        =   8.70490461959525126E-04
(PID.TID 0000.0001) %MON trcstat_ptracer42_min        =   2.03640509106731090E-29
(PID.TID 0000.0001) %MON trcstat_ptracer42_mean       =   2.59580363555077066E-05
(PID.TID 0000.0001) %MON trcstat_ptracer42_sd         =   1.36037477511677293E-04
(PID.TID 0000.0001) %MON trcstat_ptracer42_del2       =   0.00000000000000000E+00
(PID.TID 0000.0001) %MON trcstat_ptracer43_max        =   8.72618898054568128E-04
(PID.TID 0000.0001) %MON trcstat_ptracer43_min        =   2.03640509106731090E-29
(PID.TID 0000.0001) %MON trcstat_ptracer43_mean       =   2.61102884678510931E-05
(PID.TID 0000.0001) %MON trcstat_ptracer43_sd         =   1.36687068178761520E-04
(PID.TID 0000.0001) %MON trcstat_ptracer43_del2       =   0.00000000000000000E+00
(PID.TID 0000.0001) %MON trcstat_ptracer44_max        =   8.90808479187315356E-04
(PID.TID 0000.0001) %MON trcstat_ptracer44_min        =   5.89829420739052518E-36
(PID.TID 0000.0001) %MON trcstat_ptracer44_mean       =   2.65336647423324528E-05
(PID.TID 0000.0001) %MON trcstat_ptracer44_sd         =   1.39289703443728439E-04
(PID.TID 0000.0001) %MON trcstat_ptracer44_del2       =   0.00000000000000000E+00
(PID.TID 0000.0001) %MON trcstat_ptracer45_max        =   8.70490462161651745E-04
(PID.TID 0000.0001) %MON trcstat_ptracer45_min        =   2.03640509106732632E-29
(PID.TID 0000.0001) %MON trcstat_ptracer45_mean       =   2.59577056789257004E-05
(PID.TID 0000.0001) %MON trcstat_ptracer45_sd         =   1.36037512203868605E-04
(PID.TID 0000.0001) %MON trcstat_ptracer45_del2       =   0.00000000000000000E+00
(PID.TID 0000.0001) %MON trcstat_ptracer46_max        =   8.77761376042070001E-04
(PID.TID 0000.0001) %MON trcstat_ptracer46_min        =   5.89829420739052518E-36
(PID.TID 0000.0001) %MON trcstat_ptracer46_mean       =   2.62173597922030700E-05
(PID.TID 0000.0001) %MON trcstat_ptracer46_sd         =   1.37390323992214118E-04
(PID.TID 0000.0001) %MON trcstat_ptracer46_del2       =   0.00000000000000000E+00
(PID.TID 0000.0001) %MON trcstat_ptracer47_max        =   8.70490461959337993E-04
(PID.TID 0000.0001) %MON trcstat_ptracer47_min        =   2.03640509106731090E-29
(PID.TID 0000.0001) %MON trcstat_ptracer47_mean       =   2.59577056732726906E-05
(PID.TID 0000.0001) %MON trcstat_ptracer47_sd         =   1.36037512173435999E-04
(PID.TID 0000.0001) %MON trcstat_ptracer47_del2       =   0.00000000000000000E+00
(PID.TID 0000.0001) %MON trcstat_ptracer48_max        =   8.71083552167624593E-04
(PID.TID 0000.0001) %MON trcstat_ptracer48_min        =   5.89829420739052518E-36
(PID.TID 0000.0001) %MON trcstat_ptracer48_mean       =   2.60693342083992202E-05
(PID.TID 0000.0001) %MON trcstat_ptracer48_sd         =   1.36550433455031402E-04
(PID.TID 0000.0001) %MON trcstat_ptracer48_del2       =   0.00000000000000000E+00
(PID.TID 0000.0001) %MON trcstat_ptracer49_max        =   8.93424960060925050E-04
(PID.TID 0000.0001) %MON trcstat_ptracer49_min        =   5.89829420739052518E-36
(PID.TID 0000.0001) %MON trcstat_ptracer49_mean       =   2.66195390011403620E-05
(PID.TID 0000.0001) %MON trcstat_ptracer49_sd         =   1.39744433439881448E-04
(PID.TID 0000.0001) %MON trcstat_ptracer49_del2       =   0.00000000000000000E+00
(PID.TID 0000.0001) %MON trcstat_ptracer50_max        =   8.70490461959244968E-04
(PID.TID 0000.0001) %MON trcstat_ptracer50_min        =   2.03640509106731090E-29
(PID.TID 0000.0001) %MON trcstat_ptracer50_mean       =   2.59577391081462026E-05
(PID.TID 0000.0001) %MON trcstat_ptracer50_sd         =   1.36037507213076809E-04
(PID.TID 0000.0001) %MON trcstat_ptracer50_del2       =   0.00000000000000000E+00
(PID.TID 0000.0001) %MON trcstat_ptracer51_max        =   8.70545533762184754E-04
(PID.TID 0000.0001) %MON trcstat_ptracer51_min        =   5.89829420739052518E-36
(PID.TID 0000.0001) %MON trcstat_ptracer51_mean       =   2.59577056732896245E-05
(PID.TID 0000.0001) %MON trcstat_ptracer51_sd         =   1.36089451101716519E-04
(PID.TID 0000.0001) %MON trcstat_ptracer51_del2       =   0.00000000000000000E+00
(PID.TID 0000.0001) %MON trcstat_ptracer52_max        =   8.97556972498202610E-04
(PID.TID 0000.0001) %MON trcstat_ptracer52_min        =   2.03640509106731090E-29
(PID.TID 0000.0001) %MON trcstat_ptracer52_mean       =   2.67025792425925332E-05
(PID.TID 0000.0001) %MON trcstat_ptracer52_sd         =   1.40156797508350704E-04
(PID.TID 0000.0001) %MON trcstat_ptracer52_del2       =   0.00000000000000000E+00
(PID.TID 0000.0001) %MON trcstat_ptracer53_max        =   8.70490462161575525E-04
(PID.TID 0000.0001) %MON trcstat_ptracer53_min        =   2.03640509106732632E-29
(PID.TID 0000.0001) %MON trcstat_ptracer53_mean       =   2.59577056789234541E-05
(PID.TID 0000.0001) %MON trcstat_ptracer53_sd         =   1.36037512203856760E-04
(PID.TID 0000.0001) %MON trcstat_ptracer53_del2       =   0.00000000000000000E+00
(PID.TID 0000.0001) %MON trcstat_ptracer54_max        =   9.02358227838398019E-04
(PID.TID 0000.0001) %MON trcstat_ptracer54_min        =   2.03640509106731090E-29
(PID.TID 0000.0001) %MON trcstat_ptracer54_mean       =   2.68142874765524552E-05
(PID.TID 0000.0001) %MON trcstat_ptracer54_sd         =   1.40829356999975754E-04
(PID.TID 0000.0001) %MON trcstat_ptracer54_del2       =   0.00000000000000000E+00
(PID.TID 0000.0001) %MON trcstat_ptracer55_max        =   8.86446993017249310E-04
(PID.TID 0000.0001) %MON trcstat_ptracer55_min        =   5.89829420739052518E-36
(PID.TID 0000.0001) %MON trcstat_ptracer55_mean       =   2.64443831274649134E-05
(PID.TID 0000.0001) %MON trcstat_ptracer55_sd         =   1.38638177920064461E-04
(PID.TID 0000.0001) %MON trcstat_ptracer55_del2       =   0.00000000000000000E+00
(PID.TID 0000.0001) %MON trcstat_ptracer56_max        =   8.70545533761439908E-04
(PID.TID 0000.0001) %MON trcstat_ptracer56_min        =   5.89829420739052518E-36
(PID.TID 0000.0001) %MON trcstat_ptracer56_mean       =   2.59577056732680794E-05
(PID.TID 0000.0001) %MON trcstat_ptracer56_sd         =   1.36089451101609318E-04
(PID.TID 0000.0001) %MON trcstat_ptracer56_del2       =   0.00000000000000000E+00
(PID.TID 0000.0001) %MON trcstat_ptracer57_max        =   8.98642914847721293E-04
(PID.TID 0000.0001) %MON trcstat_ptracer57_min        =   2.03640509106732632E-29
(PID.TID 0000.0001) %MON trcstat_ptracer57_mean       =   2.67269993408274815E-05
(PID.TID 0000.0001) %MON trcstat_ptracer57_sd         =   1.40302338501310206E-04
(PID.TID 0000.0001) %MON trcstat_ptracer57_del2       =   0.00000000000000000E+00
(PID.TID 0000.0001) %MON trcstat_ptracer58_max        =   8.70490462161850045E-04
(PID.TID 0000.0001) %MON trcstat_ptracer58_min        =   2.03640509106732632E-29
(PID.TID 0000.0001) %MON trcstat_ptracer58_mean       =   2.59577056789315585E-05
(PID.TID 0000.0001) %MON trcstat_ptracer58_sd         =   1.36037512203899478E-04
(PID.TID 0000.0001) %MON trcstat_ptracer58_del2       =   0.00000000000000000E+00
(PID.TID 0000.0001) %MON trcstat_ptracer59_max        =   8.70545533761760398E-04
(PID.TID 0000.0001) %MON trcstat_ptracer59_min        =   5.89829420739052518E-36
(PID.TID 0000.0001) %MON trcstat_ptracer59_mean       =   2.59577056732772002E-05
(PID.TID 0000.0001) %MON trcstat_ptracer59_sd         =   1.36089451101650382E-04
(PID.TID 0000.0001) %MON trcstat_ptracer59_del2       =   0.00000000000000000E+00
(PID.TID 0000.0001) %MON trcstat_ptracer60_max        =   8.94517318082283658E-04
(PID.TID 0000.0001) %MON trcstat_ptracer60_min        =   5.89829420739052518E-36
(PID.TID 0000.0001) %MON trcstat_ptracer60_mean       =   2.66129077021147102E-05
(PID.TID 0000.0001) %MON trcstat_ptracer60_sd         =   1.39675485355490546E-04
(PID.TID 0000.0001) %MON trcstat_ptracer60_del2       =   0.00000000000000000E+00
(PID.TID 0000.0001) %MON trcstat_ptracer61_max        =   8.87778503484862509E-04
(PID.TID 0000.0001) %MON trcstat_ptracer61_min        =   5.89829420739052518E-36
(PID.TID 0000.0001) %MON trcstat_ptracer61_mean       =   2.64688784528731547E-05
(PID.TID 0000.0001) %MON trcstat_ptracer61_sd         =   1.38877213681130927E-04
(PID.TID 0000.0001) %MON trcstat_ptracer61_del2       =   0.00000000000000000E+00
(PID.TID 0000.0001) %MON trcstat_ptracer62_max        =   8.70490461959397407E-04
(PID.TID 0000.0001) %MON trcstat_ptracer62_min        =   2.03640509106731090E-29
(PID.TID 0000.0001) %MON trcstat_ptracer62_mean       =   2.59577056732744694E-05
(PID.TID 0000.0001) %MON trcstat_ptracer62_sd         =   1.36037512173445215E-04
(PID.TID 0000.0001) %MON trcstat_ptracer62_del2       =   0.00000000000000000E+00
(PID.TID 0000.0001) %MON trcstat_ptracer63_max        =   8.78707422324194226E-04
(PID.TID 0000.0001) %MON trcstat_ptracer63_min        =   2.03640509106732632E-29
(PID.TID 0000.0001) %MON trcstat_ptracer63_mean       =   2.62731954959186959E-05
(PID.TID 0000.0001) %MON trcstat_ptracer63_sd         =   1.37558506676142069E-04
(PID.TID 0000.0001) %MON trcstat_ptracer63_del2       =   0.00000000000000000E+00
(PID.TID 0000.0001) %MON trcstat_ptracer64_max        =   8.70545533761559278E-04
(PID.TID 0000.0001) %MON trcstat_ptracer64_min        =   5.89829420739052518E-36
(PID.TID 0000.0001) %MON trcstat_ptracer64_mean       =   2.59577056732712676E-05
(PID.TID 0000.0001) %MON trcstat_ptracer64_sd         =   1.36089451101618995E-04
(PID.TID 0000.0001) %MON trcstat_ptracer64_del2       =   0.00000000000000000E+00
(PID.TID 0000.0001) %MON trcstat_ptracer65_max        =   8.96941451818452393E-04
(PID.TID 0000.0001) %MON trcstat_ptracer65_min        =   2.03640509106732632E-29
(PID.TID 0000.0001) %MON trcstat_ptracer65_mean       =   2.66708169805230622E-05
(PID.TID 0000.0001) %MON trcstat_ptracer65_sd         =   1.40013046081423944E-04
(PID.TID 0000.0001) %MON trcstat_ptracer65_del2       =   0.00000000000000000E+00
(PID.TID 0000.0001) %MON trcstat_ptracer66_max        =   8.70490461959383529E-04
(PID.TID 0000.0001) %MON trcstat_ptracer66_min        =   2.03640509106731090E-29
(PID.TID 0000.0001) %MON trcstat_ptracer66_mean       =   2.59578094664889507E-05
(PID.TID 0000.0001) %MON trcstat_ptracer66_sd         =   1.36037498618595860E-04
(PID.TID 0000.0001) %MON trcstat_ptracer66_del2       =   0.00000000000000000E+00
(PID.TID 0000.0001) %MON trcstat_ptracer67_max        =   8.75200031443548851E-04
(PID.TID 0000.0001) %MON trcstat_ptracer67_min        =   2.03640509106731090E-29
(PID.TID 0000.0001) %MON trcstat_ptracer67_mean       =   2.61752569162289588E-05
(PID.TID 0000.0001) %MON trcstat_ptracer67_sd         =   1.37026071759144199E-04
(PID.TID 0000.0001) %MON trcstat_ptracer67_del2       =   0.00000000000000000E+00
(PID.TID 0000.0001) %MON trcstat_ptracer68_max        =   8.70490462161497679E-04
(PID.TID 0000.0001) %MON trcstat_ptracer68_min        =   2.03640509106732632E-29
(PID.TID 0000.0001) %MON trcstat_ptracer68_mean       =   2.59577056789211536E-05
(PID.TID 0000.0001) %MON trcstat_ptracer68_sd         =   1.36037512203844644E-04
(PID.TID 0000.0001) %MON trcstat_ptracer68_del2       =   0.00000000000000000E+00
(PID.TID 0000.0001) %MON trcstat_ptracer69_max        =   8.90440818323591445E-04
(PID.TID 0000.0001) %MON trcstat_ptracer69_min        =   5.89829420739052518E-36
(PID.TID 0000.0001) %MON trcstat_ptracer69_mean       =   2.65339708833148090E-05
(PID.TID 0000.0001) %MON trcstat_ptracer69_sd         =   1.39254764976601194E-04
(PID.TID 0000.0001) %MON trcstat_ptracer69_del2       =   0.00000000000000000E+00
(PID.TID 0000.0001) %MON trcstat_ptracer70_max        =   9.03883752895981202E-04
(PID.TID 0000.0001) %MON trcstat_ptracer70_min        =   2.03640509106732632E-29
(PID.TID 0000.0001) %MON trcstat_ptracer70_mean       =   2.68332757754674361E-05
(PID.TID 0000.0001) %MON trcstat_ptracer70_sd         =   1.40971984423255195E-04
(PID.TID 0000.0001) %MON trcstat_ptracer70_del2       =   0.00000000000000000E+00
(PID.TID 0000.0001) %MON trcstat_ptracer71_max        =   8.94832873366872882E-04
(PID.TID 0000.0001) %MON trcstat_ptracer71_min        =   2.03640509106732632E-29
(PID.TID 0000.0001) %MON trcstat_ptracer71_mean       =   2.66344894455919382E-05
(PID.TID 0000.0001) %MON trcstat_ptracer71_sd         =   1.39734711827864611E-04
(PID.TID 0000.0001) %MON trcstat_ptracer71_del2       =   0.00000000000000000E+00
(PID.TID 0000.0001) %MON trcstat_ptracer72_max        =   8.70545533761541064E-04
(PID.TID 0000.0001) %MON trcstat_ptracer72_min        =   5.89829420739052518E-36
(PID.TID 0000.0001) %MON trcstat_ptracer72_mean       =   2.59601936378020536E-05
(PID.TID 0000.0001) %MON trcstat_ptracer72_sd         =   1.36095457522433327E-04
(PID.TID 0000.0001) %MON trcstat_ptracer72_del2       =   0.00000000000000000E+00
(PID.TID 0000.0001) %MON trcstat_ptracer73_max        =   9.01018807845378441E-04
(PID.TID 0000.0001) %MON trcstat_ptracer73_min        =   2.03640509106731090E-29
(PID.TID 0000.0001) %MON trcstat_ptracer73_mean       =   2.68058405888536689E-05
(PID.TID 0000.0001) %MON trcstat_ptracer73_sd         =   1.40669264806840062E-04
(PID.TID 0000.0001) %MON trcstat_ptracer73_del2       =   0.00000000000000000E+00
(PID.TID 0000.0001) %MON trcstat_ptracer74_max        =   8.83046916493915009E-04
(PID.TID 0000.0001) %MON trcstat_ptracer74_min        =   2.03640509106731090E-29
(PID.TID 0000.0001) %MON trcstat_ptracer74_mean       =   2.63865161957638011E-05
(PID.TID 0000.0001) %MON trcstat_ptracer74_sd         =   1.38199219654337670E-04
(PID.TID 0000.0001) %MON trcstat_ptracer74_del2       =   0.00000000000000000E+00
(PID.TID 0000.0001) %MON trcstat_ptracer75_max        =   8.70545533762035893E-04
(PID.TID 0000.0001) %MON trcstat_ptracer75_min        =   5.89829420739052518E-36
(PID.TID 0000.0001) %MON trcstat_ptracer75_mean       =   2.59577056732852775E-05
(PID.TID 0000.0001) %MON trcstat_ptracer75_sd         =   1.36089451101693344E-04
(PID.TID 0000.0001) %MON trcstat_ptracer75_del2       =   0.00000000000000000E+00
(PID.TID 0000.0001) %MON trcstat_ptracer76_max        =   8.90438667792131612E-04
(PID.TID 0000.0001) %MON trcstat_ptracer76_min        =   5.89829420739052518E-36
(PID.TID 0000.0001) %MON trcstat_ptracer76_mean       =   2.65102165064098685E-05
(PID.TID 0000.0001) %MON trcstat_ptracer76_sd         =   1.39200273509643260E-04
(PID.TID 0000.0001) %MON trcstat_ptracer76_del2       =   0.00000000000000000E+00
(PID.TID 0000.0001) %MON trcstat_ptracer77_max        =   8.70545533762186814E-04
(PID.TID 0000.0001) %MON trcstat_ptracer77_min        =   5.89829420739052518E-36
(PID.TID 0000.0001) %MON trcstat_ptracer77_mean       =   2.59577056732896889E-05
(PID.TID 0000.0001) %MON trcstat_ptracer77_sd         =   1.36089451101716790E-04
(PID.TID 0000.0001) %MON trcstat_ptracer77_del2       =   0.00000000000000000E+00
(PID.TID 0000.0001) %MON trcstat_ptracer78_max        =   8.70490461959743918E-04
(PID.TID 0000.0001) %MON trcstat_ptracer78_min        =   2.03640509106731090E-29
(PID.TID 0000.0001) %MON trcstat_ptracer78_mean       =   2.59577056732847422E-05
(PID.TID 0000.0001) %MON trcstat_ptracer78_sd         =   1.36037512173499154E-04
(PID.TID 0000.0001) %MON trcstat_ptracer78_del2       =   0.00000000000000000E+00
(PID.TID 0000.0001) %MON trcstat_ptracer79_max        =   8.70490462161912061E-04
(PID.TID 0000.0001) %MON trcstat_ptracer79_min        =   2.03640509106732632E-29
(PID.TID 0000.0001) %MON trcstat_ptracer79_mean       =   2.59577056789333813E-05
(PID.TID 0000.0001) %MON trcstat_ptracer79_sd         =   1.36037512203909127E-04
(PID.TID 0000.0001) %MON trcstat_ptracer79_del2       =   0.00000000000000000E+00
(PID.TID 0000.0001) %MON trcstat_ptracer80_max        =   8.70545533761483818E-04
(PID.TID 0000.0001) %MON trcstat_ptracer80_min        =   5.89829420739052518E-36
(PID.TID 0000.0001) %MON trcstat_ptracer80_mean       =   2.59617806952929795E-05
(PID.TID 0000.0001) %MON trcstat_ptracer80_sd         =   1.36094070905732879E-04
(PID.TID 0000.0001) %MON trcstat_ptracer80_del2       =   0.00000000000000000E+00
(PID.TID 0000.0001) %MON trcstat_ptracer81_max        =   8.70545533761651435E-04
(PID.TID 0000.0001) %MON trcstat_ptracer81_min        =   5.89829420739052518E-36
(PID.TID 0000.0001) %MON trcstat_ptracer81_mean       =   2.59577056732746320E-05
(PID.TID 0000.0001) %MON trcstat_ptracer81_sd         =   1.36089451101644392E-04
(PID.TID 0000.0001) %MON trcstat_ptracer81_del2       =   0.00000000000000000E+00
(PID.TID 0000.0001) %MON trcstat_ptracer82_max        =   8.70545533761937339E-04
(PID.TID 0000.0001) %MON trcstat_ptracer82_min        =   5.89829420739052518E-36
(PID.TID 0000.0001) %MON trcstat_ptracer82_mean       =   2.59577056732823875E-05
(PID.TID 0000.0001) %MON trcstat_ptracer82_sd         =   1.36089451101677948E-04
(PID.TID 0000.0001) %MON trcstat_ptracer82_del2       =   0.00000000000000000E+00
(PID.TID 0000.0001) %MON trcstat_ptracer83_max        =   8.70490461959362821E-04
(PID.TID 0000.0001) %MON trcstat_ptracer83_min        =   2.03640509106731090E-29
(PID.TID 0000.0001) %MON trcstat_ptracer83_mean       =   2.59577056732734326E-05
(PID.TID 0000.0001) %MON trcstat_ptracer83_sd         =   1.36037512173439848E-04
(PID.TID 0000.0001) %MON trcstat_ptracer83_del2       =   0.00000000000000000E+00
(PID.TID 0000.0001) %MON trcstat_ptracer84_max        =   8.70490462294875363E-04
(PID.TID 0000.0001) %MON trcstat_ptracer84_min        =   2.03640509106732632E-29
(PID.TID 0000.0001) %MON trcstat_ptracer84_mean       =   2.60121515584830802E-05
(PID.TID 0000.0001) %MON trcstat_ptracer84_sd         =   1.36213783762596455E-04
(PID.TID 0000.0001) %MON trcstat_ptracer84_del2       =   0.00000000000000000E+00
(PID.TID 0000.0001) %MON trcstat_ptracer85_max        =   8.70490461959561230E-04
(PID.TID 0000.0001) %MON trcstat_ptracer85_min        =   2.03640509106731090E-29
(PID.TID 0000.0001) %MON trcstat_ptracer85_mean       =   2.59578628235964133E-05
(PID.TID 0000.0001) %MON trcstat_ptracer85_sd         =   1.36037492019719142E-04
(PID.TID 0000.0001) %MON trcstat_ptracer85_del2       =   0.00000000000000000E+00
(PID.TID 0000.0001) %MON trcstat_ptracer86_max        =   8.70490461959313273E-04
(PID.TID 0000.0001) %MON trcstat_ptracer86_min        =   2.03640509106731090E-29
(PID.TID 0000.0001) %MON trcstat_ptracer86_mean       =   2.59577056732719690E-05
(PID.TID 0000.0001) %MON trcstat_ptracer86_sd         =   1.36037512173432123E-04
(PID.TID 0000.0001) %MON trcstat_ptracer86_del2       =   0.00000000000000000E+00
(PID.TID 0000.0001) %MON trcstat_ptracer87_max        =   8.85599710977087035E-04
(PID.TID 0000.0001) %MON trcstat_ptracer87_min        =   2.03640509106732632E-29
(PID.TID 0000.0001) %MON trcstat_ptracer87_mean       =   2.64111162689942883E-05
(PID.TID 0000.0001) %MON trcstat_ptracer87_sd         =   1.38423773782561475E-04
(PID.TID 0000.0001) %MON trcstat_ptracer87_del2       =   0.00000000000000000E+00
(PID.TID 0000.0001) %MON trcstat_ptracer88_max        =   8.93054059094069486E-04
(PID.TID 0000.0001) %MON trcstat_ptracer88_min        =   5.89829420739052518E-36
(PID.TID 0000.0001) %MON trcstat_ptracer88_mean       =   2.65540496047504934E-05
(PID.TID 0000.0001) %MON trcstat_ptracer88_sd         =   1.39377138109962178E-04
(PID.TID 0000.0001) %MON trcstat_ptracer88_del2       =   0.00000000000000000E+00
(PID.TID 0000.0001) %MON trcstat_ptracer89_max        =   8.70545533761643738E-04
(PID.TID 0000.0001) %MON trcstat_ptracer89_min        =   5.89829420739052518E-36
(PID.TID 0000.0001) %MON trcstat_ptracer89_mean       =   2.59577056732743915E-05
(PID.TID 0000.0001) %MON trcstat_ptracer89_sd         =   1.36089451101643145E-04
(PID.TID 0000.0001) %MON trcstat_ptracer89_del2       =   0.00000000000000000E+00
(PID.TID 0000.0001) %MON trcstat_ptracer90_max        =   8.70490461959361954E-04
(PID.TID 0000.0001) %MON trcstat_ptracer90_min        =   2.03640509106731090E-29
(PID.TID 0000.0001) %MON trcstat_ptracer90_mean       =   2.59580878908982247E-05
(PID.TID 0000.0001) %MON trcstat_ptracer90_sd         =   1.36037482963779414E-04
(PID.TID 0000.0001) %MON trcstat_ptracer90_del2       =   0.00000000000000000E+00
(PID.TID 0000.0001) %MON trcstat_ptracer91_max        =   8.70545533761515151E-04
(PID.TID 0000.0001) %MON trcstat_ptracer91_min        =   5.89829420739052518E-36
(PID.TID 0000.0001) %MON trcstat_ptracer91_mean       =   2.59579017330946360E-05
(PID.TID 0000.0001) %MON trcstat_ptracer91_sd         =   1.36089431574467289E-04
(PID.TID 0000.0001) %MON trcstat_ptracer91_del2       =   0.00000000000000000E+00
(PID.TID 0000.0001) %MON trcstat_ptracer92_max        =   8.89468919159469270E-04
(PID.TID 0000.0001) %MON trcstat_ptracer92_min        =   5.89829420739052518E-36
(PID.TID 0000.0001) %MON trcstat_ptracer92_mean       =   2.65252903098467401E-05
(PID.TID 0000.0001) %MON trcstat_ptracer92_sd         =   1.39185764422616436E-04
(PID.TID 0000.0001) %MON trcstat_ptracer92_del2       =   0.00000000000000000E+00
(PID.TID 0000.0001) %MON trcstat_ptracer93_max        =   8.70545533761492600E-04
(PID.TID 0000.0001) %MON trcstat_ptracer93_min        =   5.89829420739052518E-36
(PID.TID 0000.0001) %MON trcstat_ptracer93_mean       =   2.59639278111228747E-05
(PID.TID 0000.0001) %MON trcstat_ptracer93_sd         =   1.36098161644983718E-04
(PID.TID 0000.0001) %MON trcstat_ptracer93_del2       =   0.00000000000000000E+00
(PID.TID 0000.0001) %MON trcstat_ptracer94_max        =   8.89523895636773108E-04
(PID.TID 0000.0001) %MON trcstat_ptracer94_min        =   5.89829420739052518E-36
(PID.TID 0000.0001) %MON trcstat_ptracer94_mean       =   2.64931067627288577E-05
(PID.TID 0000.0001) %MON trcstat_ptracer94_sd         =   1.39102044162955354E-04
(PID.TID 0000.0001) %MON trcstat_ptracer94_del2       =   0.00000000000000000E+00
(PID.TID 0000.0001) %MON trcstat_ptracer95_max        =   8.70545533762065601E-04
(PID.TID 0000.0001) %MON trcstat_ptracer95_min        =   5.89829420739052518E-36
(PID.TID 0000.0001) %MON trcstat_ptracer95_mean       =   2.59577056732861449E-05
(PID.TID 0000.0001) %MON trcstat_ptracer95_sd         =   1.36089451101697979E-04
(PID.TID 0000.0001) %MON trcstat_ptracer95_del2       =   0.00000000000000000E+00
(PID.TID 0000.0001) %MON trcstat_ptracer96_max        =   1.23823130539521452E-07
(PID.TID 0000.0001) %MON trcstat_ptracer96_min        =   4.14315460477999318E-34
(PID.TID 0000.0001) %MON trcstat_ptracer96_mean       =   1.63743359227025686E-08
(PID.TID 0000.0001) %MON trcstat_ptracer96_sd         =   2.99499177821250609E-08
(PID.TID 0000.0001) %MON trcstat_ptracer96_del2       =   0.00000000000000000E+00
(PID.TID 0000.0001) %MON trcstat_ptracer97_max        =   1.23822640809635782E-07
(PID.TID 0000.0001) %MON trcstat_ptracer97_min        =   4.14315460477630262E-34
(PID.TID 0000.0001) %MON trcstat_ptracer97_mean       =   1.63743219287160514E-08
(PID.TID 0000.0001) %MON trcstat_ptracer97_sd         =   2.99498708452457922E-08
(PID.TID 0000.0001) %MON trcstat_ptracer97_del2       =   0.00000000000000000E+00
(PID.TID 0000.0001) %MON trcstat_ptracer98_max        =   3.28815699334157900E-04
(PID.TID 0000.0001) %MON trcstat_ptracer98_min        =   1.17021860736789323E-29
(PID.TID 0000.0001) %MON trcstat_ptracer98_mean       =   8.20752939392393929E-06
(PID.TID 0000.0001) %MON trcstat_ptracer98_sd         =   4.29842722013585403E-05
(PID.TID 0000.0001) %MON trcstat_ptracer98_del2       =   0.00000000000000000E+00
(PID.TID 0000.0001) %MON trcstat_ptracer99_max        =   3.58827016779579664E-04
(PID.TID 0000.0001) %MON trcstat_ptracer99_min        =   1.21680549754636810E-29
(PID.TID 0000.0001) %MON trcstat_ptracer99_mean       =   9.03146277347168576E-06
(PID.TID 0000.0001) %MON trcstat_ptracer99_sd         =   4.72756018607982842E-05
(PID.TID 0000.0001) %MON trcstat_ptracer99_del2       =   0.00000000000000000E+00
(PID.TID 0000.0001) %MON trcstat_ptracer0a_max        =   1.78078882056376884E-04
(PID.TID 0000.0001) %MON trcstat_ptracer0a_min        =   2.45797874507794230E-36
(PID.TID 0000.0001) %MON trcstat_ptracer0a_mean       =   4.15289656514848552E-06
(PID.TID 0000.0001) %MON trcstat_ptracer0a_sd         =   2.19462042008163441E-05
(PID.TID 0000.0001) %MON trcstat_ptracer0a_del2       =   0.00000000000000000E+00
(PID.TID 0000.0001) %MON trcstat_ptracer0b_max        =   1.73001893543867633E-04
(PID.TID 0000.0001) %MON trcstat_ptracer0b_min        =   2.84699454631743844E-36
(PID.TID 0000.0001) %MON trcstat_ptracer0b_mean       =   3.95347918699759477E-06
(PID.TID 0000.0001) %MON trcstat_ptracer0b_sd         =   2.09192959811529279E-05
(PID.TID 0000.0001) %MON trcstat_ptracer0b_del2       =   0.00000000000000000E+00
(PID.TID 0000.0001) %MON trcstat_ptracer0c_max        =   4.43790642724742790E-04
(PID.TID 0000.0001) %MON trcstat_ptracer0c_min        =   1.46330393364906736E-29
(PID.TID 0000.0001) %MON trcstat_ptracer0c_mean       =   1.11935598355859579E-05
(PID.TID 0000.0001) %MON trcstat_ptracer0c_sd         =   5.84935852610667732E-05
(PID.TID 0000.0001) %MON trcstat_ptracer0c_del2       =   0.00000000000000000E+00
(PID.TID 0000.0001) %MON trcstat_ptracer0d_max        =   1.66032015589944658E-04
(PID.TID 0000.0001) %MON trcstat_ptracer0d_min        =   2.00809741371086843E-36
(PID.TID 0000.0001) %MON trcstat_ptracer0d_mean       =   4.01398711001144263E-06
(PID.TID 0000.0001) %MON trcstat_ptracer0d_sd         =   2.11522090888863146E-05
(PID.TID 0000.0001) %MON trcstat_ptracer0d_del2       =   0.00000000000000000E+00
(PID.TID 0000.0001) %MON trcstat_ptracer0e_max        =   1.95459033653014715E-04
(PID.TID 0000.0001) %MON trcstat_ptracer0e_min        =   2.77347982934743955E-36
(PID.TID 0000.0001) %MON trcstat_ptracer0e_mean       =   4.50765416235952018E-06
(PID.TID 0000.0001) %MON trcstat_ptracer0e_sd         =   2.38573130354309799E-05
(PID.TID 0000.0001) %MON trcstat_ptracer0e_del2       =   0.00000000000000000E+00
(PID.TID 0000.0001) %MON trcstat_ptracer0f_max        =   1.21356505567943055E-04
(PID.TID 0000.0001) %MON trcstat_ptracer0f_min        =   1.21690833888601539E-36
(PID.TID 0000.0001) %MON trcstat_ptracer0f_mean       =   3.05087742324845195E-06
(PID.TID 0000.0001) %MON trcstat_ptracer0f_sd         =   1.59668997289074046E-05
(PID.TID 0000.0001) %MON trcstat_ptracer0f_del2       =   0.00000000000000000E+00
(PID.TID 0000.0001) %MON trcstat_ptracer0g_max        =   1.62663916831022842E-04
(PID.TID 0000.0001) %MON trcstat_ptracer0g_min        =   2.84401118910734105E-36
(PID.TID 0000.0001) %MON trcstat_ptracer0g_mean       =   3.72829446846399046E-06
(PID.TID 0000.0001) %MON trcstat_ptracer0g_sd         =   1.97025581342168108E-05
(PID.TID 0000.0001) %MON trcstat_ptracer0g_del2       =   0.00000000000000000E+00
(PID.TID 0000.0001) %MON trcstat_ptracer0h_max        =   1.34562820967124784E-04
(PID.TID 0000.0001) %MON trcstat_ptracer0h_min        =   1.87711192984424221E-36
(PID.TID 0000.0001) %MON trcstat_ptracer0h_mean       =   3.11377640188376961E-06
(PID.TID 0000.0001) %MON trcstat_ptracer0h_sd         =   1.64758106023133615E-05
(PID.TID 0000.0001) %MON trcstat_ptracer0h_del2       =   0.00000000000000000E+00
(PID.TID 0000.0001) %MON trcstat_ptracer0i_max        =   3.98131035371272345E-04
(PID.TID 0000.0001) %MON trcstat_ptracer0i_min        =   1.41685434808384701E-29
(PID.TID 0000.0001) %MON trcstat_ptracer0i_mean       =   9.94750518896172187E-06
(PID.TID 0000.0001) %MON trcstat_ptracer0i_sd         =   5.21072746936182489E-05
(PID.TID 0000.0001) %MON trcstat_ptracer0i_del2       =   0.00000000000000000E+00
(PID.TID 0000.0001) %MON trcstat_ptracer0j_max        =   1.22756186192252387E-04
(PID.TID 0000.0001) %MON trcstat_ptracer0j_min        =   1.53625053980076218E-36
(PID.TID 0000.0001) %MON trcstat_ptracer0j_mean       =   2.90061327774365555E-06
(PID.TID 0000.0001) %MON trcstat_ptracer0j_sd         =   1.53225907047326528E-05
(PID.TID 0000.0001) %MON trcstat_ptracer0j_del2       =   0.00000000000000000E+00
(PID.TID 0000.0001) %MON trcstat_ptracer0k_max        =   3.74546095451042539E-04
(PID.TID 0000.0001) %MON trcstat_ptracer0k_min        =   1.29703934903313801E-29
(PID.TID 0000.0001) %MON trcstat_ptracer0k_mean       =   9.36864620693898311E-06
(PID.TID 0000.0001) %MON trcstat_ptracer0k_sd         =   4.90808256810578182E-05
(PID.TID 0000.0001) %MON trcstat_ptracer0k_del2       =   0.00000000000000000E+00
(PID.TID 0000.0001) %MON trcstat_ptracer0l_max        =   3.73931012468822343E-04
(PID.TID 0000.0001) %MON trcstat_ptracer0l_min        =   1.62378003679362758E-29
(PID.TID 0000.0001) %MON trcstat_ptracer0l_mean       =   8.91899697193589326E-06
(PID.TID 0000.0001) %MON trcstat_ptracer0l_sd         =   4.70451477348319034E-05
(PID.TID 0000.0001) %MON trcstat_ptracer0l_del2       =   0.00000000000000000E+00
(PID.TID 0000.0001) %MON trcstat_ptracer0m_max        =   1.75857679778963256E-04
(PID.TID 0000.0001) %MON trcstat_ptracer0m_min        =   2.67178689654577164E-36
(PID.TID 0000.0001) %MON trcstat_ptracer0m_mean       =   4.05061934962000738E-06
(PID.TID 0000.0001) %MON trcstat_ptracer0m_sd         =   2.14189897722121275E-05
(PID.TID 0000.0001) %MON trcstat_ptracer0m_del2       =   0.00000000000000000E+00
(PID.TID 0000.0001) %MON trcstat_ptracer0n_max        =   1.05222800884948356E-04
(PID.TID 0000.0001) %MON trcstat_ptracer0n_min        =   1.32127585319600436E-36
(PID.TID 0000.0001) %MON trcstat_ptracer0n_mean       =   2.51069340747990501E-06
(PID.TID 0000.0001) %MON trcstat_ptracer0n_sd         =   1.32448439529881258E-05
(PID.TID 0000.0001) %MON trcstat_ptracer0n_del2       =   0.00000000000000000E+00
(PID.TID 0000.0001) %MON trcstat_ptracer0o_max        =   1.68824937255388136E-04
(PID.TID 0000.0001) %MON trcstat_ptracer0o_min        =   1.72609229987301634E-36
(PID.TID 0000.0001) %MON trcstat_ptracer0o_mean       =   4.22846849062479192E-06
(PID.TID 0000.0001) %MON trcstat_ptracer0o_sd         =   2.21447414918815061E-05
(PID.TID 0000.0001) %MON trcstat_ptracer0o_del2       =   0.00000000000000000E+00
(PID.TID 0000.0001) %MON trcstat_ptracer0p_max        =   1.93942956429110153E-04
(PID.TID 0000.0001) %MON trcstat_ptracer0p_min        =   2.34776262968922182E-36
(PID.TID 0000.0001) %MON trcstat_ptracer0p_mean       =   4.68714605085923229E-06
(PID.TID 0000.0001) %MON trcstat_ptracer0p_sd         =   2.47002209444926691E-05
(PID.TID 0000.0001) %MON trcstat_ptracer0p_del2       =   0.00000000000000000E+00
(PID.TID 0000.0001) %MON trcstat_ptracer0q_max        =   1.45840107867994809E-04
(PID.TID 0000.0001) %MON trcstat_ptracer0q_min        =   1.52767427256586089E-36
(PID.TID 0000.0001) %MON trcstat_ptracer0q_mean       =   3.62723822743336328E-06
(PID.TID 0000.0001) %MON trcstat_ptracer0q_sd         =   1.90171821779009837E-05
(PID.TID 0000.0001) %MON trcstat_ptracer0q_del2       =   0.00000000000000000E+00
(PID.TID 0000.0001) %MON trcstat_ptracer0r_max        =   1.32066582605190429E-04
(PID.TID 0000.0001) %MON trcstat_ptracer0r_min        =   1.68030679108818123E-36
(PID.TID 0000.0001) %MON trcstat_ptracer0r_mean       =   3.10836579234241960E-06
(PID.TID 0000.0001) %MON trcstat_ptracer0r_sd         =   1.64262478115555455E-05
(PID.TID 0000.0001) %MON trcstat_ptracer0r_del2       =   0.00000000000000000E+00
(PID.TID 0000.0001) %MON trcstat_ptracer0s_max        =   1.21097373249562737E-04
(PID.TID 0000.0001) %MON trcstat_ptracer0s_min        =   1.64242470162651281E-36
(PID.TID 0000.0001) %MON trcstat_ptracer0s_mean       =   2.83344520197095409E-06
(PID.TID 0000.0001) %MON trcstat_ptracer0s_sd         =   1.49700931124486010E-05
(PID.TID 0000.0001) %MON trcstat_ptracer0s_del2       =   0.00000000000000000E+00
(PID.TID 0000.0001) %MON trcstat_ptracer0t_max        =   3.26171989560465083E-04
(PID.TID 0000.0001) %MON trcstat_ptracer0t_min        =   1.27439981907370711E-29
(PID.TID 0000.0001) %MON trcstat_ptracer0t_mean       =   7.99114748630830063E-06
(PID.TID 0000.0001) %MON trcstat_ptracer0t_sd         =   4.20147754502921012E-05
(PID.TID 0000.0001) %MON trcstat_ptracer0t_del2       =   0.00000000000000000E+00
(PID.TID 0000.0001) %MON trcstat_ptracer0u_max        =   1.21568952015075970E-04
(PID.TID 0000.0001) %MON trcstat_ptracer0u_min        =   1.65452048101496390E-36
(PID.TID 0000.0001) %MON trcstat_ptracer0u_mean       =   2.82836378372619725E-06
(PID.TID 0000.0001) %MON trcstat_ptracer0u_sd         =   1.49504055120140935E-05
(PID.TID 0000.0001) %MON trcstat_ptracer0u_del2       =   0.00000000000000000E+00
(PID.TID 0000.0001) %MON trcstat_ptracer0v_max        =   4.24345142937027628E-04
(PID.TID 0000.0001) %MON trcstat_ptracer0v_min        =   1.43354686243559091E-29
(PID.TID 0000.0001) %MON trcstat_ptracer0v_mean       =   1.06863622868536818E-05
(PID.TID 0000.0001) %MON trcstat_ptracer0v_sd         =   5.58539517548311512E-05
(PID.TID 0000.0001) %MON trcstat_ptracer0v_del2       =   0.00000000000000000E+00
(PID.TID 0000.0001) %MON trcstat_ptracer0w_max        =   3.40139511447658520E-04
(PID.TID 0000.0001) %MON trcstat_ptracer0w_min        =   1.30980501253763892E-29
(PID.TID 0000.0001) %MON trcstat_ptracer0w_mean       =   8.35188800643044810E-06
(PID.TID 0000.0001) %MON trcstat_ptracer0w_sd         =   4.38860872523935219E-05
(PID.TID 0000.0001) %MON trcstat_ptracer0w_del2       =   0.00000000000000000E+00
(PID.TID 0000.0001) %MON trcstat_ptracer0x_max        =   3.34377014613210124E-04
(PID.TID 0000.0001) %MON trcstat_ptracer0x_min        =   1.26560743645251446E-29
(PID.TID 0000.0001) %MON trcstat_ptracer0x_mean       =   8.24228026356929331E-06
(PID.TID 0000.0001) %MON trcstat_ptracer0x_sd         =   4.32570860167103384E-05
(PID.TID 0000.0001) %MON trcstat_ptracer0x_del2       =   0.00000000000000000E+00
(PID.TID 0000.0001) %MON trcstat_ptracer0y_max        =   1.31046423219019134E-04
(PID.TID 0000.0001) %MON trcstat_ptracer0y_min        =   1.49236988513016531E-36
(PID.TID 0000.0001) %MON trcstat_ptracer0y_mean       =   3.19557848734315289E-06
(PID.TID 0000.0001) %MON trcstat_ptracer0y_sd         =   1.68326245155735299E-05
(PID.TID 0000.0001) %MON trcstat_ptracer0y_del2       =   0.00000000000000000E+00
(PID.TID 0000.0001) %MON trcstat_ptracer0z_max        =   3.37583373421145375E-04
(PID.TID 0000.0001) %MON trcstat_ptracer0z_min        =   1.38265328095027240E-29
(PID.TID 0000.0001) %MON trcstat_ptracer0z_mean       =   8.22618107550912712E-06
(PID.TID 0000.0001) %MON trcstat_ptracer0z_sd         =   4.33129167937616565E-05
(PID.TID 0000.0001) %MON trcstat_ptracer0z_del2       =   0.00000000000000000E+00
(PID.TID 0000.0001) %MON trcstat_ptracer0A_max        =   1.29006800525876305E-04
(PID.TID 0000.0001) %MON trcstat_ptracer0A_min        =   1.32653565705550592E-36
(PID.TID 0000.0001) %MON trcstat_ptracer0A_mean       =   3.21403085413323909E-06
(PID.TID 0000.0001) %MON trcstat_ptracer0A_sd         =   1.68451598235636095E-05
(PID.TID 0000.0001) %MON trcstat_ptracer0A_del2       =   0.00000000000000000E+00
(PID.TID 0000.0001) %MON trcstat_ptracer0B_max        =   3.57731881704899163E-04
(PID.TID 0000.0001) %MON trcstat_ptracer0B_min        =   1.26994650660030545E-29
(PID.TID 0000.0001) %MON trcstat_ptracer0B_mean       =   8.94467909808448082E-06
(PID.TID 0000.0001) %MON trcstat_ptracer0B_sd         =   4.68488693302555710E-05
(PID.TID 0000.0001) %MON trcstat_ptracer0B_del2       =   0.00000000000000000E+00
(PID.TID 0000.0001) %MON trcstat_ptracer0C_max        =   2.00862530413871301E-04
(PID.TID 0000.0001) %MON trcstat_ptracer0C_min        =   2.30885467940752441E-36
(PID.TID 0000.0001) %MON trcstat_ptracer0C_mean       =   4.91499462817323343E-06
(PID.TID 0000.0001) %MON trcstat_ptracer0C_sd         =   2.58459767855202531E-05
(PID.TID 0000.0001) %MON trcstat_ptracer0C_del2       =   0.00000000000000000E+00
(PID.TID 0000.0001) %MON trcstat_ptracer0D_max        =   1.55135354433044476E-04
(PID.TID 0000.0001) %MON trcstat_ptracer0D_min        =   2.18252781576337054E-36
(PID.TID 0000.0001) %MON trcstat_ptracer0D_mean       =   3.57912217076406853E-06
(PID.TID 0000.0001) %MON trcstat_ptracer0D_sd         =   1.89459959641535287E-05
(PID.TID 0000.0001) %MON trcstat_ptracer0D_del2       =   0.00000000000000000E+00
(PID.TID 0000.0001) %MON trcstat_ptracer0E_max        =   3.59872936278537894E-04
(PID.TID 0000.0001) %MON trcstat_ptracer0E_min        =   1.39800787715716448E-29
(PID.TID 0000.0001) %MON trcstat_ptracer0E_mean       =   8.82414038037166311E-06
(PID.TID 0000.0001) %MON trcstat_ptracer0E_sd         =   4.63845963363702601E-05
(PID.TID 0000.0001) %MON trcstat_ptracer0E_del2       =   0.00000000000000000E+00
(PID.TID 0000.0001) %MON trcstat_ptracer0F_max        =   1.87971726304661209E-04
(PID.TID 0000.0001) %MON trcstat_ptracer0F_min        =   2.27676943349287164E-36
(PID.TID 0000.0001) %MON trcstat_ptracer0F_mean       =   4.54184366636852294E-06
(PID.TID 0000.0001) %MON trcstat_ptracer0F_sd         =   2.39349489749155775E-05
(PID.TID 0000.0001) %MON trcstat_ptracer0F_del2       =   0.00000000000000000E+00
(PID.TID 0000.0001) %MON trcstat_ptracer0G_max        =   4.18672640388063574E-04
(PID.TID 0000.0001) %MON trcstat_ptracer0G_min        =   1.48302799334973381E-29
(PID.TID 0000.0001) %MON trcstat_ptracer0G_mean       =   1.04368501431462843E-05
(PID.TID 0000.0001) %MON trcstat_ptracer0G_sd         =   5.46896490996346421E-05
(PID.TID 0000.0001) %MON trcstat_ptracer0G_del2       =   0.00000000000000000E+00
(PID.TID 0000.0001) %MON trcstat_ptracer0H_max        =   3.13334532867670364E-04
(PID.TID 0000.0001) %MON trcstat_ptracer0H_min        =   1.19692443101316823E-29
(PID.TID 0000.0001) %MON trcstat_ptracer0H_mean       =   7.70321788112510948E-06
(PID.TID 0000.0001) %MON trcstat_ptracer0H_sd         =   4.04691490697745314E-05
(PID.TID 0000.0001) %MON trcstat_ptracer0H_del2       =   0.00000000000000000E+00
(PID.TID 0000.0001) %MON trcstat_ptracer0I_max        =   3.78961461251827185E-04
(PID.TID 0000.0001) %MON trcstat_ptracer0I_min        =   1.23865449504943801E-29
(PID.TID 0000.0001) %MON trcstat_ptracer0I_mean       =   9.55995825585214461E-06
(PID.TID 0000.0001) %MON trcstat_ptracer0I_sd         =   4.99523061084461932E-05
(PID.TID 0000.0001) %MON trcstat_ptracer0I_del2       =   0.00000000000000000E+00
(PID.TID 0000.0001) %MON trcstat_ptracer0J_max        =   1.72255312236556309E-04
(PID.TID 0000.0001) %MON trcstat_ptracer0J_min        =   1.92242719712355907E-36
(PID.TID 0000.0001) %MON trcstat_ptracer0J_mean       =   4.20498870627618344E-06
(PID.TID 0000.0001) %MON trcstat_ptracer0J_sd         =   2.21373051853102896E-05
(PID.TID 0000.0001) %MON trcstat_ptracer0J_del2       =   0.00000000000000000E+00
(PID.TID 0000.0001) %MON trcstat_ptracer0K_max        =   1.37618822714402161E-04
(PID.TID 0000.0001) %MON trcstat_ptracer0K_min        =   1.76816365279553300E-36
(PID.TID 0000.0001) %MON trcstat_ptracer0K_mean       =   3.26153099223326378E-06
(PID.TID 0000.0001) %MON trcstat_ptracer0K_sd         =   1.72151702590928727E-05
(PID.TID 0000.0001) %MON trcstat_ptracer0K_del2       =   0.00000000000000000E+00
(PID.TID 0000.0001) %MON trcstat_ptracer0L_max        =   3.18621841651693270E-04
(PID.TID 0000.0001) %MON trcstat_ptracer0L_min        =   1.10396493138192712E-29
(PID.TID 0000.0001) %MON trcstat_ptracer0L_mean       =   7.99005538264881124E-06
(PID.TID 0000.0001) %MON trcstat_ptracer0L_sd         =   4.18324106369115137E-05
(PID.TID 0000.0001) %MON trcstat_ptracer0L_del2       =   0.00000000000000000E+00
(PID.TID 0000.0001) %MON trcstat_ptracer0M_max        =   3.56548143958727577E-04
(PID.TID 0000.0001) %MON trcstat_ptracer0M_min        =   1.13840624340613056E-29
(PID.TID 0000.0001) %MON trcstat_ptracer0M_mean       =   9.01903338971411427E-06
(PID.TID 0000.0001) %MON trcstat_ptracer0M_sd         =   4.70303671402321990E-05
(PID.TID 0000.0001) %MON trcstat_ptracer0M_del2       =   0.00000000000000000E+00
(PID.TID 0000.0001) %MON trcstat_ptracer0N_max        =   1.51608425960024918E-04
(PID.TID 0000.0001) %MON trcstat_ptracer0N_min        =   2.43870105520521639E-36
(PID.TID 0000.0001) %MON trcstat_ptracer0N_mean       =   3.47954942865397343E-06
(PID.TID 0000.0001) %MON trcstat_ptracer0N_sd         =   1.83983163237174595E-05
(PID.TID 0000.0001) %MON trcstat_ptracer0N_del2       =   0.00000000000000000E+00
(PID.TID 0000.0001) %MON trcstat_ptracer0O_max        =   1.48276727609911613E-04
(PID.TID 0000.0001) %MON trcstat_ptracer0O_min        =   1.81616942697741873E-36
(PID.TID 0000.0001) %MON trcstat_ptracer0O_mean       =   3.54016297693093871E-06
(PID.TID 0000.0001) %MON trcstat_ptracer0O_sd         =   1.86772704118930161E-05
(PID.TID 0000.0001) %MON trcstat_ptracer0O_del2       =   0.00000000000000000E+00
(PID.TID 0000.0001) %MON trcstat_ptracer0P_max        =   2.34760305614446573E-04
(PID.TID 0000.0001) %MON trcstat_ptracer0P_min        =   2.72933729041404577E-36
(PID.TID 0000.0001) %MON trcstat_ptracer0P_mean       =   5.70534591032777986E-06
(PID.TID 0000.0001) %MON trcstat_ptracer0P_sd         =   3.00646409512088784E-05
(PID.TID 0000.0001) %MON trcstat_ptracer0P_del2       =   0.00000000000000000E+00
(PID.TID 0000.0001) %MON trcstat_ptracer0Q_max        =   3.73826070241059939E-04
(PID.TID 0000.0001) %MON trcstat_ptracer0Q_min        =   1.62046212197873917E-29
(PID.TID 0000.0001) %MON trcstat_ptracer0Q_mean       =   8.92139084843091243E-06
(PID.TID 0000.0001) %MON trcstat_ptracer0Q_sd         =   4.70556591088640205E-05
(PID.TID 0000.0001) %MON trcstat_ptracer0Q_del2       =   0.00000000000000000E+00
(PID.TID 0000.0001) %MON trcstat_ptracer0R_max        =   3.38583966004504084E-04
(PID.TID 0000.0001) %MON trcstat_ptracer0R_min        =   1.39783849916372560E-29
(PID.TID 0000.0001) %MON trcstat_ptracer0R_mean       =   8.19305588491634482E-06
(PID.TID 0000.0001) %MON trcstat_ptracer0R_sd         =   4.31352250434838136E-05
(PID.TID 0000.0001) %MON trcstat_ptracer0R_del2       =   0.00000000000000000E+00
(PID.TID 0000.0001) %MON trcstat_ptracer0S_max        =   1.01726253742820004E-04
(PID.TID 0000.0001) %MON trcstat_ptracer0S_min        =   1.26095930680186892E-36
(PID.TID 0000.0001) %MON trcstat_ptracer0S_mean       =   2.43752711358353153E-06
(PID.TID 0000.0001) %MON trcstat_ptracer0S_sd         =   1.28544081390093945E-05
(PID.TID 0000.0001) %MON trcstat_ptracer0S_del2       =   0.00000000000000000E+00
(PID.TID 0000.0001) %MON trcstat_ptracer0T_max        =   3.62810775303102240E-04
(PID.TID 0000.0001) %MON trcstat_ptracer0T_min        =   1.24640586738808590E-29
(PID.TID 0000.0001) %MON trcstat_ptracer0T_mean       =   9.13089750079665221E-06
(PID.TID 0000.0001) %MON trcstat_ptracer0T_sd         =   4.77798990892421753E-05
(PID.TID 0000.0001) %MON trcstat_ptracer0T_del2       =   0.00000000000000000E+00
(PID.TID 0000.0001) %MON trcstat_ptracer0U_max        =   3.52555265820685831E-04
(PID.TID 0000.0001) %MON trcstat_ptracer0U_min        =   1.35070681971325295E-29
(PID.TID 0000.0001) %MON trcstat_ptracer0U_mean       =   8.66350017293680015E-06
(PID.TID 0000.0001) %MON trcstat_ptracer0U_sd         =   4.55172077926478189E-05
(PID.TID 0000.0001) %MON trcstat_ptracer0U_del2       =   0.00000000000000000E+00
(PID.TID 0000.0001) %MON trcstat_ptracer0V_max        =   3.58318140559237366E-04
(PID.TID 0000.0001) %MON trcstat_ptracer0V_min        =   1.49367391188481540E-29
(PID.TID 0000.0001) %MON trcstat_ptracer0V_mean       =   8.65411563570862854E-06
(PID.TID 0000.0001) %MON trcstat_ptracer0V_sd         =   4.55648529530670423E-05
(PID.TID 0000.0001) %MON trcstat_ptracer0V_del2       =   0.00000000000000000E+00
(PID.TID 0000.0001) %MON trcstat_ptracer0W_max        =   4.67214756917652230E-04
(PID.TID 0000.0001) %MON trcstat_ptracer0W_min        =   1.59475851509904454E-29
(PID.TID 0000.0001) %MON trcstat_ptracer0W_mean       =   1.17618848319633972E-05
(PID.TID 0000.0001) %MON trcstat_ptracer0W_sd         =   6.15001186607530619E-05
(PID.TID 0000.0001) %MON trcstat_ptracer0W_del2       =   0.00000000000000000E+00
(PID.TID 0000.0001) %MON trcstat_ptracer0X_max        =   1.80169739798396333E-04
(PID.TID 0000.0001) %MON trcstat_ptracer0X_min        =   1.93637651546667723E-36
(PID.TID 0000.0001) %MON trcstat_ptracer0X_mean       =   4.42998312388430729E-06
(PID.TID 0000.0001) %MON trcstat_ptracer0X_sd         =   2.32885446336452082E-05
(PID.TID 0000.0001) %MON trcstat_ptracer0X_del2       =   0.00000000000000000E+00
(PID.TID 0000.0001) %MON trcstat_ptracer0Y_max        =   3.52265771537127090E-04
(PID.TID 0000.0001) %MON trcstat_ptracer0Y_min        =   1.19921385943680106E-29
(PID.TID 0000.0001) %MON trcstat_ptracer0Y_mean       =   8.86886462801756146E-06
(PID.TID 0000.0001) %MON trcstat_ptracer0Y_sd         =   4.64117092689134039E-05
(PID.TID 0000.0001) %MON trcstat_ptracer0Y_del2       =   0.00000000000000000E+00
(PID.TID 0000.0001) %MON trcstat_ptracer0Z_max        =   3.63469158800734660E-04
(PID.TID 0000.0001) %MON trcstat_ptracer0Z_min        =   1.37705739249040140E-29
(PID.TID 0000.0001) %MON trcstat_ptracer0Z_mean       =   8.93515276242369263E-06
(PID.TID 0000.0001) %MON trcstat_ptracer0Z_sd         =   4.69372155292317516E-05
(PID.TID 0000.0001) %MON trcstat_ptracer0Z_del2       =   0.00000000000000000E+00
(PID.TID 0000.0001) %MON trcstat_ptracer1a_max        =   1.44299938138847959E-04
(PID.TID 0000.0001) %MON trcstat_ptracer1a_min        =   1.74235168514244948E-36
(PID.TID 0000.0001) %MON trcstat_ptracer1a_mean       =   3.49112829995485577E-06
(PID.TID 0000.0001) %MON trcstat_ptracer1a_sd         =   1.83953453046393632E-05
(PID.TID 0000.0001) %MON trcstat_ptracer1a_del2       =   0.00000000000000000E+00
(PID.TID 0000.0001) %MON trcstat_ptracer1b_max        =   3.72117756797914580E-04
(PID.TID 0000.0001) %MON trcstat_ptracer1b_min        =   1.48254536534315086E-29
(PID.TID 0000.0001) %MON trcstat_ptracer1b_mean       =   9.08001018748691106E-06
(PID.TID 0000.0001) %MON trcstat_ptracer1b_sd         =   4.77947482565606110E-05
(PID.TID 0000.0001) %MON trcstat_ptracer1b_del2       =   0.00000000000000000E+00
(PID.TID 0000.0001) %MON trcstat_ptracer1c_max        =   3.07002851627634853E-04
(PID.TID 0000.0001) %MON trcstat_ptracer1c_min        =   1.18486163272584001E-29
(PID.TID 0000.0001) %MON trcstat_ptracer1c_mean       =   7.52901819823587452E-06
(PID.TID 0000.0001) %MON trcstat_ptracer1c_sd         =   3.95709877143802784E-05
(PID.TID 0000.0001) %MON trcstat_ptracer1c_del2       =   0.00000000000000000E+00
(PID.TID 0000.0001) %MON trcstat_ptracer1d_max        =   1.66761441994595192E-04
(PID.TID 0000.0001) %MON trcstat_ptracer1d_min        =   2.84684148558278429E-36
(PID.TID 0000.0001) %MON trcstat_ptracer1d_mean       =   3.82199811722216303E-06
(PID.TID 0000.0001) %MON trcstat_ptracer1d_sd         =   2.02024475426828591E-05
(PID.TID 0000.0001) %MON trcstat_ptracer1d_del2       =   0.00000000000000000E+00
(PID.TID 0000.0001) %MON trcstat_ptracer1e_max        =   1.91512956274571565E-04
(PID.TID 0000.0001) %MON trcstat_ptracer1e_min        =   2.06647637045788626E-36
(PID.TID 0000.0001) %MON trcstat_ptracer1e_mean       =   4.70004518304523241E-06
(PID.TID 0000.0001) %MON trcstat_ptracer1e_sd         =   2.47246912757342247E-05
(PID.TID 0000.0001) %MON trcstat_ptracer1e_del2       =   0.00000000000000000E+00
(PID.TID 0000.0001) %MON trcstat_ptracer1f_max        =   1.16085054215058669E-04
(PID.TID 0000.0001) %MON trcstat_ptracer1f_min        =   1.48901493538500623E-36
(PID.TID 0000.0001) %MON trcstat_ptracer1f_mean       =   2.75245615605490351E-06
(PID.TID 0000.0001) %MON trcstat_ptracer1f_sd         =   1.45276151381856028E-05
(PID.TID 0000.0001) %MON trcstat_ptracer1f_del2       =   0.00000000000000000E+00
(PID.TID 0000.0001) %MON trcstat_ptracer1g_max        =   4.63639717539671679E-04
(PID.TID 0000.0001) %MON trcstat_ptracer1g_min        =   1.62351657688495882E-29
(PID.TID 0000.0001) %MON trcstat_ptracer1g_mean       =   1.16430296591469732E-05
(PID.TID 0000.0001) %MON trcstat_ptracer1g_sd         =   6.09419477771776881E-05
(PID.TID 0000.0001) %MON trcstat_ptracer1g_del2       =   0.00000000000000000E+00
(PID.TID 0000.0001) %MON trcstat_ptracer1h_max        =   3.96445751267256456E-04
(PID.TID 0000.0001) %MON trcstat_ptracer1h_min        =   1.38030108033970856E-29
(PID.TID 0000.0001) %MON trcstat_ptracer1h_mean       =   9.97491838200922585E-06
(PID.TID 0000.0001) %MON trcstat_ptracer1h_sd         =   5.21960250428058007E-05
(PID.TID 0000.0001) %MON trcstat_ptracer1h_del2       =   0.00000000000000000E+00
(PID.TID 0000.0001) %MON trcstat_ptracer1i_max        =   1.61422182396575342E-04
(PID.TID 0000.0001) %MON trcstat_ptracer1i_min        =   1.71059158269603069E-36
(PID.TID 0000.0001) %MON trcstat_ptracer1i_mean       =   4.00429689907307079E-06
(PID.TID 0000.0001) %MON trcstat_ptracer1i_sd         =   2.09995653092379315E-05
(PID.TID 0000.0001) %MON trcstat_ptracer1i_del2       =   0.00000000000000000E+00
(PID.TID 0000.0001) %MON trcstat_ptracer1j_max        =   1.41903169083697157E-04
(PID.TID 0000.0001) %MON trcstat_ptracer1j_min        =   1.74979149854099799E-36
(PID.TID 0000.0001) %MON trcstat_ptracer1j_mean       =   3.40634683684768301E-06
(PID.TID 0000.0001) %MON trcstat_ptracer1j_sd         =   1.79608483334729721E-05
(PID.TID 0000.0001) %MON trcstat_ptracer1j_del2       =   0.00000000000000000E+00
(PID.TID 0000.0001) %MON trcstat_ptracer1k_max        =   1.57075374981003181E-04
(PID.TID 0000.0001) %MON trcstat_ptracer1k_min        =   2.53619454998859489E-36
(PID.TID 0000.0001) %MON trcstat_ptracer1k_mean       =   3.60446200209814696E-06
(PID.TID 0000.0001) %MON trcstat_ptracer1k_sd         =   1.90585530388968021E-05
(PID.TID 0000.0001) %MON trcstat_ptracer1k_del2       =   0.00000000000000000E+00
(PID.TID 0000.0001) %MON trcstat_ptracer1l_max        =   4.53559484430505013E-04
(PID.TID 0000.0001) %MON trcstat_ptracer1l_min        =   1.62358515282640010E-29
(PID.TID 0000.0001) %MON trcstat_ptracer1l_mean       =   1.13132682739403939E-05
(PID.TID 0000.0001) %MON trcstat_ptracer1l_sd         =   5.92773701183109335E-05
(PID.TID 0000.0001) %MON trcstat_ptracer1l_del2       =   0.00000000000000000E+00
(PID.TID 0000.0001) %MON trcstat_ptracer1m_max        =   3.28089880293215216E-04
(PID.TID 0000.0001) %MON trcstat_ptracer1m_min        =   1.18674754748068736E-29
(PID.TID 0000.0001) %MON trcstat_ptracer1m_mean       =   8.17025456678253317E-06
(PID.TID 0000.0001) %MON trcstat_ptracer1m_sd         =   4.27962349895151054E-05
(PID.TID 0000.0001) %MON trcstat_ptracer1m_del2       =   0.00000000000000000E+00
(PID.TID 0000.0001) %MON trcstat_ptracer1n_max        =   3.66142405172726606E-04
(PID.TID 0000.0001) %MON trcstat_ptracer1n_min        =   1.53279793741592805E-29
(PID.TID 0000.0001) %MON trcstat_ptracer1n_mean       =   8.84415130105454068E-06
(PID.TID 0000.0001) %MON trcstat_ptracer1n_sd         =   4.65993235668052722E-05
(PID.TID 0000.0001) %MON trcstat_ptracer1n_del2       =   0.00000000000000000E+00
(PID.TID 0000.0001) %MON trcstat_ptracer1o_max        =   3.60452751640507306E-04
(PID.TID 0000.0001) %MON trcstat_ptracer1o_min        =   1.48519752842362987E-29
(PID.TID 0000.0001) %MON trcstat_ptracer1o_mean       =   8.76131957052537973E-06
(PID.TID 0000.0001) %MON trcstat_ptracer1o_sd         =   4.61404662497754778E-05
(PID.TID 0000.0001) %MON trcstat_ptracer1o_del2       =   0.00000000000000000E+00
(PID.TID 0000.0001) %MON trcstat_ptracer1p_max        =   3.09091578520270913E-04
(PID.TID 0000.0001) %MON trcstat_ptracer1p_min        =   1.11899192091980387E-29
(PID.TID 0000.0001) %MON trcstat_ptracer1p_mean       =   7.67118601590528691E-06
(PID.TID 0000.0001) %MON trcstat_ptracer1p_sd         =   4.02201658626082052E-05
(PID.TID 0000.0001) %MON trcstat_ptracer1p_del2       =   0.00000000000000000E+00
(PID.TID 0000.0001) %MON trcstat_ptracer1q_max        =   1.78430764629449964E-04
(PID.TID 0000.0001) %MON trcstat_ptracer1q_min        =   1.82155530687554263E-36
(PID.TID 0000.0001) %MON trcstat_ptracer1q_mean       =   4.43621889727563662E-06
(PID.TID 0000.0001) %MON trcstat_ptracer1q_sd         =   2.32696013539649358E-05
(PID.TID 0000.0001) %MON trcstat_ptracer1q_del2       =   0.00000000000000000E+00
(PID.TID 0000.0001) %MON trcstat_ptracer1r_max        =   1.62798476894657413E-04
(PID.TID 0000.0001) %MON trcstat_ptracer1r_min        =   1.86539924466469362E-36
(PID.TID 0000.0001) %MON trcstat_ptracer1r_mean       =   3.98101849698438511E-06
(PID.TID 0000.0001) %MON trcstat_ptracer1r_sd         =   2.09428623648699944E-05
(PID.TID 0000.0001) %MON trcstat_ptracer1r_del2       =   0.00000000000000000E+00
(PID.TID 0000.0001) %MON trcstat_ptracer1s_max        =   3.42653500254755806E-04
(PID.TID 0000.0001) %MON trcstat_ptracer1s_min        =   1.05694337053675627E-29
(PID.TID 0000.0001) %MON trcstat_ptracer1s_mean       =   8.71409318556616135E-06
(PID.TID 0000.0001) %MON trcstat_ptracer1s_sd         =   4.53680426985758118E-05
(PID.TID 0000.0001) %MON trcstat_ptracer1s_del2       =   0.00000000000000000E+00
(PID.TID 0000.0001) %MON trcstat_ptracer1t_max        =   1.56147083015894595E-04
(PID.TID 0000.0001) %MON trcstat_ptracer1t_min        =   2.48223975626911425E-36
(PID.TID 0000.0001) %MON trcstat_ptracer1t_mean       =   3.58584878914426400E-06
(PID.TID 0000.0001) %MON trcstat_ptracer1t_sd         =   1.89601106433430845E-05
(PID.TID 0000.0001) %MON trcstat_ptracer1t_del2       =   0.00000000000000000E+00
(PID.TID 0000.0001) %MON trcstat_ptracer1u_max        =   1.97722101241584291E-04
(PID.TID 0000.0001) %MON trcstat_ptracer1u_min        =   2.57742406887030645E-36
(PID.TID 0000.0001) %MON trcstat_ptracer1u_mean       =   4.62923460596990327E-06
(PID.TID 0000.0001) %MON trcstat_ptracer1u_sd         =   2.44739563050819411E-05
(PID.TID 0000.0001) %MON trcstat_ptracer1u_del2       =   0.00000000000000000E+00
(PID.TID 0000.0001) %MON trcstat_ptracer1v_max        =   1.81165616704710171E-04
(PID.TID 0000.0001) %MON trcstat_ptracer1v_min        =   2.56869606801691847E-36
(PID.TID 0000.0001) %MON trcstat_ptracer1v_mean       =   4.20762450256504160E-06
(PID.TID 0000.0001) %MON trcstat_ptracer1v_sd         =   2.22372152305881202E-05
(PID.TID 0000.0001) %MON trcstat_ptracer1v_del2       =   0.00000000000000000E+00
(PID.TID 0000.0001) %MON trcstat_ptracer1w_max        =   2.29358596775680829E-04
(PID.TID 0000.0001) %MON trcstat_ptracer1w_min        =   2.64611604558157192E-36
(PID.TID 0000.0001) %MON trcstat_ptracer1w_mean       =   5.58095885866622620E-06
(PID.TID 0000.0001) %MON trcstat_ptracer1w_sd         =   2.94187814120206932E-05
(PID.TID 0000.0001) %MON trcstat_ptracer1w_del2       =   0.00000000000000000E+00
(PID.TID 0000.0001) %MON trcstat_ptracer1x_max        =   1.50383185639518704E-04
(PID.TID 0000.0001) %MON trcstat_ptracer1x_min        =   2.01502540262951425E-36
(PID.TID 0000.0001) %MON trcstat_ptracer1x_mean       =   3.52755780628225546E-06
(PID.TID 0000.0001) %MON trcstat_ptracer1x_sd         =   1.86339692790882759E-05
(PID.TID 0000.0001) %MON trcstat_ptracer1x_del2       =   0.00000000000000000E+00
(PID.TID 0000.0001) // =======================================================
(PID.TID 0000.0001) // End MONITOR ptracers field statistics
(PID.TID 0000.0001) // =======================================================
 Computing Diagnostic #    140  TRAC01       Counter:       1   Parms: SMR     MR      
 Computing Diagnostic #    152  TRAC02       Counter:       1   Parms: SMR     MR      
 Computing Diagnostic #    164  TRAC03       Counter:       1   Parms: SMR     MR      
 Computing Diagnostic #    176  TRAC04       Counter:       1   Parms: SMR     MR      
 Computing Diagnostic #    188  TRAC05       Counter:       1   Parms: SMR     MR      
 Computing Diagnostic #    200  TRAC06       Counter:       1   Parms: SMR     MR      
 Computing Diagnostic #    212  TRAC07       Counter:       1   Parms: SMR     MR      
 Computing Diagnostic #    224  TRAC08       Counter:       1   Parms: SMR     MR      
 Computing Diagnostic #    236  TRAC09       Counter:       1   Parms: SMR     MR      
 Computing Diagnostic #    248  TRAC10       Counter:       1   Parms: SMR     MR      
 Computing Diagnostic #    260  TRAC11       Counter:       1   Parms: SMR     MR      
 Computing Diagnostic #    272  TRAC12       Counter:       1   Parms: SMR     MR      
 Computing Diagnostic #    284  TRAC13       Counter:       1   Parms: SMR     MR      
 Computing Diagnostic #    296  TRAC14       Counter:       1   Parms: SMR     MR      
 Computing Diagnostic #    308  TRAC15       Counter:       1   Parms: SMR     MR      
 Computing Diagnostic #    320  TRAC16       Counter:       1   Parms: SMR     MR      
 Computing Diagnostic #    332  TRAC17       Counter:       1   Parms: SMR     MR      
 Computing Diagnostic #    344  TRAC18       Counter:       1   Parms: SMR     MR      
 Computing Diagnostic #    356  TRAC19       Counter:       1   Parms: SMR     MR      
 Computing Diagnostic #    368  TRAC20       Counter:       1   Parms: SMR     MR      
 Computing Diagnostic #    380  TRAC21       Counter:       1   Parms: SMR     MR      
 Computing Diagnostic #    392  TRAC22       Counter:       1   Parms: SMR     MR      
 Computing Diagnostic #    404  TRAC23       Counter:       1   Parms: SMR     MR      
 Computing Diagnostic #    416  TRAC24       Counter:       1   Parms: SMR     MR      
 Computing Diagnostic #    428  TRAC25       Counter:       1   Parms: SMR     MR      
 Computing Diagnostic #    440  TRAC26       Counter:       1   Parms: SMR     MR      
 Computing Diagnostic #    452  TRAC27       Counter:       1   Parms: SMR     MR      
 Computing Diagnostic #    464  TRAC28       Counter:       1   Parms: SMR     MR      
 Computing Diagnostic #    476  TRAC29       Counter:       1   Parms: SMR     MR      
 Computing Diagnostic #    488  TRAC30       Counter:       1   Parms: SMR     MR      
 Computing Diagnostic #    500  TRAC31       Counter:       1   Parms: SMR     MR      
 Computing Diagnostic #    512  TRAC32       Counter:       1   Parms: SMR     MR      
 Computing Diagnostic #    524  TRAC33       Counter:       1   Parms: SMR     MR      
 Computing Diagnostic #    536  TRAC34       Counter:       1   Parms: SMR     MR      
 Computing Diagnostic #    548  TRAC35       Counter:       1   Parms: SMR     MR      
 Computing Diagnostic #    560  TRAC36       Counter:       1   Parms: SMR     MR      
 Computing Diagnostic #    572  TRAC37       Counter:       1   Parms: SMR     MR      
 Computing Diagnostic #    584  TRAC38       Counter:       1   Parms: SMR     MR      
 Computing Diagnostic #    596  TRAC39       Counter:       1   Parms: SMR     MR      
 Computing Diagnostic #    608  TRAC40       Counter:       1   Parms: SMR     MR      
 Computing Diagnostic #    620  TRAC41       Counter:       1   Parms: SMR     MR      
 Computing Diagnostic #    632  TRAC42       Counter:       1   Parms: SMR     MR      
 Computing Diagnostic #    644  TRAC43       Counter:       1   Parms: SMR     MR      
 Computing Diagnostic #    656  TRAC44       Counter:       1   Parms: SMR     MR      
 Computing Diagnostic #    668  TRAC45       Counter:       1   Parms: SMR     MR      
 Computing Diagnostic #    680  TRAC46       Counter:       1   Parms: SMR     MR      
 Computing Diagnostic #    692  TRAC47       Counter:       1   Parms: SMR     MR      
 Computing Diagnostic #    704  TRAC48       Counter:       1   Parms: SMR     MR      
 Computing Diagnostic #    716  TRAC49       Counter:       1   Parms: SMR     MR      
 Computing Diagnostic #    728  TRAC50       Counter:       1   Parms: SMR     MR      
 Computing Diagnostic #    740  TRAC51       Counter:       1   Parms: SMR     MR      
 Computing Diagnostic #    752  TRAC52       Counter:       1   Parms: SMR     MR      
 Computing Diagnostic #    764  TRAC53       Counter:       1   Parms: SMR     MR      
 Computing Diagnostic #    776  TRAC54       Counter:       1   Parms: SMR     MR      
 Computing Diagnostic #    788  TRAC55       Counter:       1   Parms: SMR     MR      
 Computing Diagnostic #    800  TRAC56       Counter:       1   Parms: SMR     MR      
 Computing Diagnostic #    812  TRAC57       Counter:       1   Parms: SMR     MR      
 Computing Diagnostic #    824  TRAC58       Counter:       1   Parms: SMR     MR      
 Computing Diagnostic #    836  TRAC59       Counter:       1   Parms: SMR     MR      
 Computing Diagnostic #    848  TRAC60       Counter:       1   Parms: SMR     MR      
 Computing Diagnostic #    860  TRAC61       Counter:       1   Parms: SMR     MR      
 Computing Diagnostic #    872  TRAC62       Counter:       1   Parms: SMR     MR      
 Computing Diagnostic #    884  TRAC63       Counter:       1   Parms: SMR     MR      
 Computing Diagnostic #    896  TRAC64       Counter:       1   Parms: SMR     MR      
 Computing Diagnostic #    908  TRAC65       Counter:       1   Parms: SMR     MR      
 Computing Diagnostic #    920  TRAC66       Counter:       1   Parms: SMR     MR      
 Computing Diagnostic #    932  TRAC67       Counter:       1   Parms: SMR     MR      
 Computing Diagnostic #    944  TRAC68       Counter:       1   Parms: SMR     MR      
 Computing Diagnostic #    956  TRAC69       Counter:       1   Parms: SMR     MR      
 Computing Diagnostic #    968  TRAC70       Counter:       1   Parms: SMR     MR      
 Computing Diagnostic #    980  TRAC71       Counter:       1   Parms: SMR     MR      
 Computing Diagnostic #    992  TRAC72       Counter:       1   Parms: SMR     MR      
 Computing Diagnostic #   1004  TRAC73       Counter:       1   Parms: SMR     MR      
 Computing Diagnostic #   1016  TRAC74       Counter:       1   Parms: SMR     MR      
 Computing Diagnostic #   1028  TRAC75       Counter:       1   Parms: SMR     MR      
 Computing Diagnostic #   1040  TRAC76       Counter:       1   Parms: SMR     MR      
 Computing Diagnostic #   1052  TRAC77       Counter:       1   Parms: SMR     MR      
 Computing Diagnostic #   1064  TRAC78       Counter:       1   Parms: SMR     MR      
 Computing Diagnostic #   1076  TRAC79       Counter:       1   Parms: SMR     MR      
 Computing Diagnostic #   1088  TRAC80       Counter:       1   Parms: SMR     MR      
 Computing Diagnostic #   1100  TRAC81       Counter:       1   Parms: SMR     MR      
 Computing Diagnostic #   1112  TRAC82       Counter:       1   Parms: SMR     MR      
 Computing Diagnostic #   1124  TRAC83       Counter:       1   Parms: SMR     MR      
 Computing Diagnostic #   1136  TRAC84       Counter:       1   Parms: SMR     MR      
 Computing Diagnostic #   1148  TRAC85       Counter:       1   Parms: SMR     MR      
 Computing Diagnostic #   1160  TRAC86       Counter:       1   Parms: SMR     MR      
 Computing Diagnostic #   1172  TRAC87       Counter:       1   Parms: SMR     MR      
 Computing Diagnostic #   1184  TRAC88       Counter:       1   Parms: SMR     MR      
 Computing Diagnostic #   1196  TRAC89       Counter:       1   Parms: SMR     MR      
 Computing Diagnostic #   1208  TRAC90       Counter:       1   Parms: SMR     MR      
 Computing Diagnostic #   1220  TRAC91       Counter:       1   Parms: SMR     MR      
 Computing Diagnostic #   1232  TRAC92       Counter:       1   Parms: SMR     MR      
 Computing Diagnostic #   1244  TRAC93       Counter:       1   Parms: SMR     MR      
 Computing Diagnostic #   1256  TRAC94       Counter:       1   Parms: SMR     MR      
 Computing Diagnostic #   1268  TRAC95       Counter:       1   Parms: SMR     MR      
 Computing Diagnostic #   1280  TRAC96       Counter:       1   Parms: SMR     MR      
 Computing Diagnostic #   1292  TRAC97       Counter:       1   Parms: SMR     MR      
 Computing Diagnostic #   1304  TRAC98       Counter:       1   Parms: SMR     MR      
 Computing Diagnostic #   1316  TRAC99       Counter:       1   Parms: SMR     MR      
 Computing Diagnostic #   1328  TRAC0a       Counter:       1   Parms: SMR     MR      
 Computing Diagnostic #   1340  TRAC0b       Counter:       1   Parms: SMR     MR      
 Computing Diagnostic #   1352  TRAC0c       Counter:       1   Parms: SMR     MR      
 Computing Diagnostic #   1364  TRAC0d       Counter:       1   Parms: SMR     MR      
 Computing Diagnostic #   1376  TRAC0e       Counter:       1   Parms: SMR     MR      
 Computing Diagnostic #   1388  TRAC0f       Counter:       1   Parms: SMR     MR      
 Computing Diagnostic #   1400  TRAC0g       Counter:       1   Parms: SMR     MR      
 Computing Diagnostic #   1412  TRAC0h       Counter:       1   Parms: SMR     MR      
 Computing Diagnostic #   1424  TRAC0i       Counter:       1   Parms: SMR     MR      
 Computing Diagnostic #   1436  TRAC0j       Counter:       1   Parms: SMR     MR      
 Computing Diagnostic #   1448  TRAC0k       Counter:       1   Parms: SMR     MR      
 Computing Diagnostic #   1460  TRAC0l       Counter:       1   Parms: SMR     MR      
 Computing Diagnostic #   1472  TRAC0m       Counter:       1   Parms: SMR     MR      
 Computing Diagnostic #   1484  TRAC0n       Counter:       1   Parms: SMR     MR      
 Computing Diagnostic #   1496  TRAC0o       Counter:       1   Parms: SMR     MR      
 Computing Diagnostic #   1508  TRAC0p       Counter:       1   Parms: SMR     MR      
 Computing Diagnostic #   1520  TRAC0q       Counter:       1   Parms: SMR     MR      
 Computing Diagnostic #   1532  TRAC0r       Counter:       1   Parms: SMR     MR      
 Computing Diagnostic #   1544  TRAC0s       Counter:       1   Parms: SMR     MR      
 Computing Diagnostic #   1556  TRAC0t       Counter:       1   Parms: SMR     MR      
 Computing Diagnostic #   1568  TRAC0u       Counter:       1   Parms: SMR     MR      
 Computing Diagnostic #   1580  TRAC0v       Counter:       1   Parms: SMR     MR      
 Computing Diagnostic #   1592  TRAC0w       Counter:       1   Parms: SMR     MR      
 Computing Diagnostic #   1604  TRAC0x       Counter:       1   Parms: SMR     MR      
 Computing Diagnostic #   1616  TRAC0y       Counter:       1   Parms: SMR     MR      
 Computing Diagnostic #   1628  TRAC0z       Counter:       1   Parms: SMR     MR      
 Computing Diagnostic #   1640  TRAC0A       Counter:       1   Parms: SMR     MR      
 Computing Diagnostic #   1652  TRAC0B       Counter:       1   Parms: SMR     MR      
 Computing Diagnostic #   1664  TRAC0C       Counter:       1   Parms: SMR     MR      
 Computing Diagnostic #   1676  TRAC0D       Counter:       1   Parms: SMR     MR      
 Computing Diagnostic #   1688  TRAC0E       Counter:       1   Parms: SMR     MR      
 Computing Diagnostic #   1700  TRAC0F       Counter:       1   Parms: SMR     MR      
 Computing Diagnostic #   1712  TRAC0G       Counter:       1   Parms: SMR     MR      
 Computing Diagnostic #   1724  TRAC0H       Counter:       1   Parms: SMR     MR      
 Computing Diagnostic #   1736  TRAC0I       Counter:       1   Parms: SMR     MR      
 Computing Diagnostic #   1748  TRAC0J       Counter:       1   Parms: SMR     MR      
 Computing Diagnostic #   1760  TRAC0K       Counter:       1   Parms: SMR     MR      
 Computing Diagnostic #   1772  TRAC0L       Counter:       1   Parms: SMR     MR      
 Computing Diagnostic #   1784  TRAC0M       Counter:       1   Parms: SMR     MR      
 Computing Diagnostic #   1796  TRAC0N       Counter:       1   Parms: SMR     MR      
 Computing Diagnostic #   1808  TRAC0O       Counter:       1   Parms: SMR     MR      
 Computing Diagnostic #   1820  TRAC0P       Counter:       1   Parms: SMR     MR      
 Computing Diagnostic #   1832  TRAC0Q       Counter:       1   Parms: SMR     MR      
 Computing Diagnostic #   1844  TRAC0R       Counter:       1   Parms: SMR     MR      
 Computing Diagnostic #   1856  TRAC0S       Counter:       1   Parms: SMR     MR      
 Computing Diagnostic #   1868  TRAC0T       Counter:       1   Parms: SMR     MR      
 Computing Diagnostic #   1880  TRAC0U       Counter:       1   Parms: SMR     MR      
 Computing Diagnostic #   1892  TRAC0V       Counter:       1   Parms: SMR     MR      
 Computing Diagnostic #   1904  TRAC0W       Counter:       1   Parms: SMR     MR      
 Computing Diagnostic #   1916  TRAC0X       Counter:       1   Parms: SMR     MR      
 Computing Diagnostic #   1928  TRAC0Y       Counter:       1   Parms: SMR     MR      
 Computing Diagnostic #   1940  TRAC0Z       Counter:       1   Parms: SMR     MR      
 Computing Diagnostic #   1952  TRAC1a       Counter:       1   Parms: SMR     MR      
 Computing Diagnostic #   1964  TRAC1b       Counter:       1   Parms: SMR     MR      
 Computing Diagnostic #   1976  TRAC1c       Counter:       1   Parms: SMR     MR      
 Computing Diagnostic #   1988  TRAC1d       Counter:       1   Parms: SMR     MR      
 Computing Diagnostic #   2000  TRAC1e       Counter:       1   Parms: SMR     MR      
 Computing Diagnostic #   2012  TRAC1f       Counter:       1   Parms: SMR     MR      
 Computing Diagnostic #   2024  TRAC1g       Counter:       1   Parms: SMR     MR      
 Computing Diagnostic #   2036  TRAC1h       Counter:       1   Parms: SMR     MR      
 Computing Diagnostic #   2048  TRAC1i       Counter:       1   Parms: SMR     MR      
 Computing Diagnostic #   2060  TRAC1j       Counter:       1   Parms: SMR     MR      
 Computing Diagnostic #   2072  TRAC1k       Counter:       1   Parms: SMR     MR      
 Computing Diagnostic #   2084  TRAC1l       Counter:       1   Parms: SMR     MR      
 Computing Diagnostic #   2096  TRAC1m       Counter:       1   Parms: SMR     MR      
 Computing Diagnostic #   2108  TRAC1n       Counter:       1   Parms: SMR     MR      
 Computing Diagnostic #   2120  TRAC1o       Counter:       1   Parms: SMR     MR      
 Computing Diagnostic #   2132  TRAC1p       Counter:       1   Parms: SMR     MR      
 Computing Diagnostic #   2144  TRAC1q       Counter:       1   Parms: SMR     MR      
 Computing Diagnostic #   2156  TRAC1r       Counter:       1   Parms: SMR     MR      
 Computing Diagnostic #   2168  TRAC1s       Counter:       1   Parms: SMR     MR      
 Computing Diagnostic #   2180  TRAC1t       Counter:       1   Parms: SMR     MR      
 Computing Diagnostic #   2192  TRAC1u       Counter:       1   Parms: SMR     MR      
 Computing Diagnostic #   2204  TRAC1v       Counter:       1   Parms: SMR     MR      
 Computing Diagnostic #   2216  TRAC1w       Counter:       1   Parms: SMR     MR      
 Computing Diagnostic #   2228  TRAC1x       Counter:       1   Parms: SMR     MR      
 Computing Diagnostic #   2245  PAR01        Counter:       2   Parms: SM P    MR      
 Computing Diagnostic #   2252  DIC_c01      Counter:       1   Parms: SM P    MR      
 Computing Diagnostic #   2263  DIC_c02      Counter:       1   Parms: SM P    MR      
 Computing Diagnostic #   2253  c01_DOC      Counter:       1   Parms: SM P    MR      
 Computing Diagnostic #   2264  c02_DOC      Counter:       1   Parms: SM P    MR      
 Computing Diagnostic #   2254  c01_POC      Counter:       1   Parms: SM P    MR      
 Computing Diagnostic #   2265  c02_POC      Counter:       1   Parms: SM P    MR      
 Computing Diagnostic #   2244  PARF         Counter:       1   Parms: SM P    MR      
 Computing Diagnostic #   2241  atten        Counter:       1   Parms: SM P    MR      
 Computing Diagnostic #   2243  surfPAR      Counter:       1   Parms: SM P    MR      
 Computing Diagnostic #   2242  exfPAR       Counter:       1   Parms: SM P    MR      
 Computing Diagnostic #   2246  limn01       Counter:       1   Parms: SM P    MR      
 Computing Diagnostic #   2247  limp01       Counter:       1   Parms: SM P    MR      
 Computing Diagnostic #   2248  limsi01      Counter:       1   Parms: SM P    MR      
 Computing Diagnostic #   2249  limfe01      Counter:       1   Parms: SM P    MR      
 Computing Diagnostic #   2250  limI01       Counter:       1   Parms: SM P    MR      
 Computing Diagnostic #   2251  limT01       Counter:       1   Parms: SM P    MR      
 Computing Diagnostic #   2255  c01_c        Counter:       1   Parms: SM P    MR      
 Computing Diagnostic #   2266  c02_c        Counter:       1   Parms: SM P    MR      
 Computing Diagnostic #   2278  c_c03        Counter:       1   Parms: SM P    MR      
 Computing Diagnostic #   2289  c_c04        Counter:       1   Parms: SM P    MR      
 Computing Diagnostic #   3126  c_DOC        Counter:       1   Parms: SM P    MR      
 Computing Diagnostic #   3127  c_POC        Counter:       1   Parms: SM P    MR      
 Computing Diagnostic #   3128  c_PIC        Counter:       1   Parms: SM P    MR      
 Computing Diagnostic #   3129  n_DON        Counter:       1   Parms: SM P    MR      
 Computing Diagnostic #   3130  n_PON        Counter:       1   Parms: SM P    MR      
 Computing Diagnostic #   3131  p_DOP        Counter:       1   Parms: SM P    MR      
 Computing Diagnostic #   3132  p_POP        Counter:       1   Parms: SM P    MR      
(PID.TID 0000.0001) // =======================================================
(PID.TID 0000.0001) // Begin MONITOR EXF statistics
(PID.TID 0000.0001) // =======================================================
(PID.TID 0000.0001) %MON exf_tsnumber                 =                     3
(PID.TID 0000.0001) %MON exf_time_sec                 =   1.08000000000000000E+04
(PID.TID 0000.0001) %MON exf_ustress_max              =   0.00000000000000000E+00
(PID.TID 0000.0001) %MON exf_ustress_min              =   0.00000000000000000E+00
(PID.TID 0000.0001) %MON exf_ustress_mean             =   0.00000000000000000E+00
(PID.TID 0000.0001) %MON exf_ustress_sd               =   0.00000000000000000E+00
(PID.TID 0000.0001) %MON exf_ustress_del2             =   0.00000000000000000E+00
(PID.TID 0000.0001) %MON exf_vstress_max              =   0.00000000000000000E+00
(PID.TID 0000.0001) %MON exf_vstress_min              =   0.00000000000000000E+00
(PID.TID 0000.0001) %MON exf_vstress_mean             =   0.00000000000000000E+00
(PID.TID 0000.0001) %MON exf_vstress_sd               =   0.00000000000000000E+00
(PID.TID 0000.0001) %MON exf_vstress_del2             =   0.00000000000000000E+00
(PID.TID 0000.0001) %MON exf_hflux_max                =   0.00000000000000000E+00
(PID.TID 0000.0001) %MON exf_hflux_min                =   0.00000000000000000E+00
(PID.TID 0000.0001) %MON exf_hflux_mean               =   0.00000000000000000E+00
(PID.TID 0000.0001) %MON exf_hflux_sd                 =   0.00000000000000000E+00
(PID.TID 0000.0001) %MON exf_hflux_del2               =   0.00000000000000000E+00
(PID.TID 0000.0001) %MON exf_sflux_max                =   0.00000000000000000E+00
(PID.TID 0000.0001) %MON exf_sflux_min                =   0.00000000000000000E+00
(PID.TID 0000.0001) %MON exf_sflux_mean               =   0.00000000000000000E+00
(PID.TID 0000.0001) %MON exf_sflux_sd                 =   0.00000000000000000E+00
(PID.TID 0000.0001) %MON exf_sflux_del2               =   0.00000000000000000E+00
(PID.TID 0000.0001) %MON exf_uwind_max                =   0.00000000000000000E+00
(PID.TID 0000.0001) %MON exf_uwind_min                =   0.00000000000000000E+00
(PID.TID 0000.0001) %MON exf_uwind_mean               =   0.00000000000000000E+00
(PID.TID 0000.0001) %MON exf_uwind_sd                 =   0.00000000000000000E+00
(PID.TID 0000.0001) %MON exf_uwind_del2               =   0.00000000000000000E+00
(PID.TID 0000.0001) %MON exf_vwind_max                =   0.00000000000000000E+00
(PID.TID 0000.0001) %MON exf_vwind_min                =   0.00000000000000000E+00
(PID.TID 0000.0001) %MON exf_vwind_mean               =   0.00000000000000000E+00
(PID.TID 0000.0001) %MON exf_vwind_sd                 =   0.00000000000000000E+00
(PID.TID 0000.0001) %MON exf_vwind_del2               =   0.00000000000000000E+00
(PID.TID 0000.0001) %MON exf_wspeed_max               =   0.00000000000000000E+00
(PID.TID 0000.0001) %MON exf_wspeed_min               =   0.00000000000000000E+00
(PID.TID 0000.0001) %MON exf_wspeed_mean              =   0.00000000000000000E+00
(PID.TID 0000.0001) %MON exf_wspeed_sd                =   0.00000000000000000E+00
(PID.TID 0000.0001) %MON exf_wspeed_del2              =   0.00000000000000000E+00
(PID.TID 0000.0001) %MON exf_evap_max                 =   0.00000000000000000E+00
(PID.TID 0000.0001) %MON exf_evap_min                 =   0.00000000000000000E+00
(PID.TID 0000.0001) %MON exf_evap_mean                =   0.00000000000000000E+00
(PID.TID 0000.0001) %MON exf_evap_sd                  =   0.00000000000000000E+00
(PID.TID 0000.0001) %MON exf_evap_del2                =   0.00000000000000000E+00
(PID.TID 0000.0001) // =======================================================
(PID.TID 0000.0001) // End MONITOR EXF statistics
(PID.TID 0000.0001) // =======================================================
 EXTERNAL_FIELDS_LOAD,         3 : iP,iLd,i0,i1=   12    1   12    1 ; Wght=  0.4958333333  0.5041666667
 exf          12           1  0.49583333333333335       0.50416666666666665     
 exf          12           1  0.49583333333333335       0.50416666666666665     
 PAR           1   561.09872616901623        685.85836813773642       0.20077427345381552     
 PAR           2   375.41158897876346        459.03322775419866       0.20109960437155028     
 PAR           3   250.98938808337729        307.02322319687659       0.20151273063290653     
 PAR           4   167.64900559642203        205.18211057302534       0.20202538758423985     
 PAR           5   111.85710670610578        136.98167446945146       0.20262493013826316     
 PAR           6   74.543513866827098        91.340775100916616       0.20321425998055839     
 PAR           7   49.619044828634550        60.835212460968933       0.20379404529355372     
 PAR           8   33.004670944333625        40.470798245106216       0.20393158784181031     
 PAR           9   21.951207464245599        26.915908540930769       0.20389535960716332     
 PAR          10   14.607585398680492        17.902256890403624       0.20338584651079394     
 PAR          11   9.7334469358180300        11.919254230684462       0.20258700311389824     
 PAR          12   6.4969673578536797        7.9484829687154823       0.20164558121401838     
 PAR          13   4.3426985171927770        5.3105208899803040       0.20119399344084904     
 PAR          14   2.9048778628017593        3.5512581160938219       0.20091059396849537     
 PAR          15   1.7586866263597229        2.3761481486108860       0.30091345621031973     
 PAR          16  0.96410986082141881        1.3016775286274647       0.30020386660214882     
 PAR          17  0.52892522750551119       0.71408455880251831       0.30015431002534559     
 PAR          18  0.29020476811520363       0.39177698613299039       0.30010599421172224     
 PAR          19  0.15924175611579075       0.21496619356863059       0.30005725037010084     
 PAR          20   7.9071715824428845E-002  0.11796244083721541       0.40001103989235648     
 PAR          21   3.5528819024914837E-002   5.3002771043431242E-002  0.40000002535784923     
 PAR          22   1.5964127043464039E-002   2.3815679000458403E-002  0.40000000003089720     
 PAR          23   7.1731446672536631E-003   1.0701074374362976E-002  0.40000000000001767     
 PAR          24   1.7688756968586472E-003   4.8083026635736912E-003   1.0000000000000000     
 PAR          25   2.3939129344472570E-004   6.5073300286210478E-004   1.0000000000000000     
 PAR          26   1.1918590693403938E-005   8.8067135253754454E-005   2.0000000000000000     
 PAR          27   8.0306832395933923E-008   1.6130058472730779E-006   3.0000000000001883     
 PAR          28   1.9906072972988986E-010   3.9982417549021996E-009   3.0000000295019222     
 PAR          29   1.8151985017617812E-013   9.9106498680356876E-012   4.0000001870838995     
 PAR          30   8.2409862720235594E-018   3.3246514049752028E-015   6.0000000770193695     
 PAR          31   6.8526155276756577E-024   2.0427361086353442E-020   8.0000001026565606     
 PAR          32   7.7116020651843649E-031   2.2987961769331126E-027   8.0000000000101057     
 PAR          33   8.6782648576215184E-038   2.5869542940990411E-034   8.0000000000000000     
 PAR          34   1.3216979800082716E-045   2.9112335347717324E-041   10.000000000000000     
 PAR          35   2.7242225792637735E-054   6.0004995459593639E-050   10.000000000000000     
 fe   1.3005196874088820E-003
 fe   1.3005196874088820E-003   3.1609156931968331E-004
(PID.TID 0000.0001) // =======================================================
(PID.TID 0000.0001) // Begin MONITOR dynamic field statistics
(PID.TID 0000.0001) // =======================================================
(PID.TID 0000.0001) %MON time_tsnumber                =                     4
(PID.TID 0000.0001) %MON time_secondsf                =   1.44000000000000000E+04
(PID.TID 0000.0001) %MON dynstat_eta_max              =   0.00000000000000000E+00
(PID.TID 0000.0001) %MON dynstat_eta_min              =   0.00000000000000000E+00
(PID.TID 0000.0001) %MON dynstat_eta_mean             =   0.00000000000000000E+00
(PID.TID 0000.0001) %MON dynstat_eta_sd               =   0.00000000000000000E+00
(PID.TID 0000.0001) %MON dynstat_eta_del2             =   0.00000000000000000E+00
(PID.TID 0000.0001) %MON dynstat_uvel_max             =   0.00000000000000000E+00
(PID.TID 0000.0001) %MON dynstat_uvel_min             =   0.00000000000000000E+00
(PID.TID 0000.0001) %MON dynstat_uvel_mean            =   0.00000000000000000E+00
(PID.TID 0000.0001) %MON dynstat_uvel_sd              =   0.00000000000000000E+00
(PID.TID 0000.0001) %MON dynstat_uvel_del2            =   0.00000000000000000E+00
(PID.TID 0000.0001) %MON dynstat_vvel_max             =   0.00000000000000000E+00
(PID.TID 0000.0001) %MON dynstat_vvel_min             =   0.00000000000000000E+00
(PID.TID 0000.0001) %MON dynstat_vvel_mean            =   0.00000000000000000E+00
(PID.TID 0000.0001) %MON dynstat_vvel_sd              =   0.00000000000000000E+00
(PID.TID 0000.0001) %MON dynstat_vvel_del2            =   0.00000000000000000E+00
(PID.TID 0000.0001) %MON dynstat_wvel_max             =   0.00000000000000000E+00
(PID.TID 0000.0001) %MON dynstat_wvel_min             =   0.00000000000000000E+00
(PID.TID 0000.0001) %MON dynstat_wvel_mean            =   0.00000000000000000E+00
(PID.TID 0000.0001) %MON dynstat_wvel_sd              =   0.00000000000000000E+00
(PID.TID 0000.0001) %MON dynstat_wvel_del2            =   0.00000000000000000E+00
(PID.TID 0000.0001) %MON dynstat_theta_max            =   2.63073403455792523E+01
(PID.TID 0000.0001) %MON dynstat_theta_min            =   2.67370099162970565E+00
(PID.TID 0000.0001) %MON dynstat_theta_mean           =   5.47349080533276489E+00
(PID.TID 0000.0001) %MON dynstat_theta_sd             =   5.19673181859076383E+00
(PID.TID 0000.0001) %MON dynstat_theta_del2           =   0.00000000000000000E+00
(PID.TID 0000.0001) %MON dynstat_salt_max             =   3.50000000000000000E+01
(PID.TID 0000.0001) %MON dynstat_salt_min             =   3.50000000000000000E+01
(PID.TID 0000.0001) %MON dynstat_salt_mean            =   3.50000000000000071E+01
(PID.TID 0000.0001) %MON dynstat_salt_sd              =   7.10542735760100186E-15
(PID.TID 0000.0001) %MON dynstat_salt_del2            =   0.00000000000000000E+00
(PID.TID 0000.0001) %MON dynstat_sst_max              =   2.63073403455792523E+01
(PID.TID 0000.0001) %MON dynstat_sst_min              =   2.63073403455792523E+01
(PID.TID 0000.0001) %MON dynstat_sst_mean             =   2.63073403455792523E+01
(PID.TID 0000.0001) %MON dynstat_sst_sd               =   0.00000000000000000E+00
(PID.TID 0000.0001) %MON dynstat_sst_del2             =   0.00000000000000000E+00
(PID.TID 0000.0001) %MON dynstat_sss_max              =   3.50000000000000000E+01
(PID.TID 0000.0001) %MON dynstat_sss_min              =   3.50000000000000000E+01
(PID.TID 0000.0001) %MON dynstat_sss_mean             =   3.50000000000000000E+01
(PID.TID 0000.0001) %MON dynstat_sss_sd               =   0.00000000000000000E+00
(PID.TID 0000.0001) %MON dynstat_sss_del2             =   0.00000000000000000E+00
(PID.TID 0000.0001) %MON forcing_qnet_max             =   0.00000000000000000E+00
(PID.TID 0000.0001) %MON forcing_qnet_min             =   0.00000000000000000E+00
(PID.TID 0000.0001) %MON forcing_qnet_mean            =   0.00000000000000000E+00
(PID.TID 0000.0001) %MON forcing_qnet_sd              =   0.00000000000000000E+00
(PID.TID 0000.0001) %MON forcing_qnet_del2            =   0.00000000000000000E+00
(PID.TID 0000.0001) %MON forcing_qsw_max              =   0.00000000000000000E+00
(PID.TID 0000.0001) %MON forcing_qsw_min              =   0.00000000000000000E+00
(PID.TID 0000.0001) %MON forcing_qsw_mean             =   0.00000000000000000E+00
(PID.TID 0000.0001) %MON forcing_qsw_sd               =   0.00000000000000000E+00
(PID.TID 0000.0001) %MON forcing_qsw_del2             =   0.00000000000000000E+00
(PID.TID 0000.0001) %MON forcing_empmr_max            =   0.00000000000000000E+00
(PID.TID 0000.0001) %MON forcing_empmr_min            =   0.00000000000000000E+00
(PID.TID 0000.0001) %MON forcing_empmr_mean           =   0.00000000000000000E+00
(PID.TID 0000.0001) %MON forcing_empmr_sd             =   0.00000000000000000E+00
(PID.TID 0000.0001) %MON forcing_empmr_del2           =   0.00000000000000000E+00
(PID.TID 0000.0001) %MON forcing_fu_max               =   0.00000000000000000E+00
(PID.TID 0000.0001) %MON forcing_fu_min               =   0.00000000000000000E+00
(PID.TID 0000.0001) %MON forcing_fu_mean              =   0.00000000000000000E+00
(PID.TID 0000.0001) %MON forcing_fu_sd                =   0.00000000000000000E+00
(PID.TID 0000.0001) %MON forcing_fu_del2              =   0.00000000000000000E+00
(PID.TID 0000.0001) %MON forcing_fv_max               =   0.00000000000000000E+00
(PID.TID 0000.0001) %MON forcing_fv_min               =   0.00000000000000000E+00
(PID.TID 0000.0001) %MON forcing_fv_mean              =   0.00000000000000000E+00
(PID.TID 0000.0001) %MON forcing_fv_sd                =   0.00000000000000000E+00
(PID.TID 0000.0001) %MON forcing_fv_del2              =   0.00000000000000000E+00
(PID.TID 0000.0001) %MON advcfl_uvel_max              =   0.00000000000000000E+00
(PID.TID 0000.0001) %MON advcfl_vvel_max              =   0.00000000000000000E+00
(PID.TID 0000.0001) %MON advcfl_wvel_max              =   0.00000000000000000E+00
(PID.TID 0000.0001) %MON advcfl_W_hf_max              =   0.00000000000000000E+00
(PID.TID 0000.0001) %MON pe_b_mean                    =   0.00000000000000000E+00
(PID.TID 0000.0001) %MON ke_max                       =   0.00000000000000000E+00
(PID.TID 0000.0001) %MON ke_mean                      =   0.00000000000000000E+00
(PID.TID 0000.0001) %MON ke_vol                       =   4.11997678834846094E+13
(PID.TID 0000.0001) %MON vort_r_min                   =   0.00000000000000000E+00
(PID.TID 0000.0001) %MON vort_r_max                   =   0.00000000000000000E+00
(PID.TID 0000.0001) %MON vort_a_mean                  =  -4.50678018366247268E-05
(PID.TID 0000.0001) %MON vort_a_sd                    =  -4.13590306276513837E-25
(PID.TID 0000.0001) %MON vort_p_mean                  =  -4.50678018366247268E-05
(PID.TID 0000.0001) %MON vort_p_sd                    =   0.00000000000000000E+00
(PID.TID 0000.0001) %MON surfExpan_theta_mean         =   0.00000000000000000E+00
(PID.TID 0000.0001) %MON surfExpan_salt_mean          =   0.00000000000000000E+00
(PID.TID 0000.0001) // =======================================================
(PID.TID 0000.0001) // End MONITOR dynamic field statistics
(PID.TID 0000.0001) // =======================================================
(PID.TID 0000.0001) // =======================================================
(PID.TID 0000.0001) // Begin MONITOR ptracer field statistics
(PID.TID 0000.0001) // =======================================================
(PID.TID 0000.0001) %MON trcstat_ptracer01_max        =   2.00000000000078421E+03
(PID.TID 0000.0001) %MON trcstat_ptracer01_min        =   1.99999908239953584E+03
(PID.TID 0000.0001) %MON trcstat_ptracer01_mean       =   1.99999997404931082E+03
(PID.TID 0000.0001) %MON trcstat_ptracer01_sd         =   1.41591287443934615E-04
(PID.TID 0000.0001) %MON trcstat_ptracer01_del2       =   0.00000000000000000E+00
(PID.TID 0000.0001) %MON trcstat_ptracer02_max        =   2.56379901998782418E-02
(PID.TID 0000.0001) %MON trcstat_ptracer02_min        =   1.87714653842964723E-07
(PID.TID 0000.0001) %MON trcstat_ptracer02_mean       =   6.04514809647425499E-04
(PID.TID 0000.0001) %MON trcstat_ptracer02_sd         =   3.25451535900525904E-03
(PID.TID 0000.0001) %MON trcstat_ptracer02_del2       =   0.00000000000000000E+00
(PID.TID 0000.0001) %MON trcstat_ptracer03_max        =   1.84898314632678286E-02
(PID.TID 0000.0001) %MON trcstat_ptracer03_min        =   3.87758070927142509E-06
(PID.TID 0000.0001) %MON trcstat_ptracer03_mean       =   6.05153775943868821E-04
(PID.TID 0000.0001) %MON trcstat_ptracer03_sd         =   1.94947527728647567E-03
(PID.TID 0000.0001) %MON trcstat_ptracer03_del2       =   0.00000000000000000E+00
(PID.TID 0000.0001) %MON trcstat_ptracer04_max        =   3.39034929813114516E+01
(PID.TID 0000.0001) %MON trcstat_ptracer04_min        =   4.66416766456379320E-02
(PID.TID 0000.0001) %MON trcstat_ptracer04_mean       =   2.35023948717325801E+01
(PID.TID 0000.0001) %MON trcstat_ptracer04_sd         =   7.81618684919176854E+00
(PID.TID 0000.0001) %MON trcstat_ptracer04_del2       =   0.00000000000000000E+00
(PID.TID 0000.0001) %MON trcstat_ptracer05_max        =   2.24369964407428579E+00
(PID.TID 0000.0001) %MON trcstat_ptracer05_min        =   2.10255827839005816E-01
(PID.TID 0000.0001) %MON trcstat_ptracer05_mean       =   1.58213414962107590E+00
(PID.TID 0000.0001) %MON trcstat_ptracer05_sd         =   4.67349527648622587E-01
(PID.TID 0000.0001) %MON trcstat_ptracer05_del2       =   0.00000000000000000E+00
(PID.TID 0000.0001) %MON trcstat_ptracer06_max        =   3.93874006498070983E+01
(PID.TID 0000.0001) %MON trcstat_ptracer06_min        =   1.22478541633745119E+00
(PID.TID 0000.0001) %MON trcstat_ptracer06_mean       =   2.96218908072642897E+01
(PID.TID 0000.0001) %MON trcstat_ptracer06_sd         =   1.12705823905260143E+01
(PID.TID 0000.0001) %MON trcstat_ptracer06_del2       =   0.00000000000000000E+00
(PID.TID 0000.0001) %MON trcstat_ptracer07_max        =   1.30051968740888197E-03
(PID.TID 0000.0001) %MON trcstat_ptracer07_min        =   1.29994156762755150E-03
(PID.TID 0000.0001) %MON trcstat_ptracer07_mean       =   1.29994361583614946E-03
(PID.TID 0000.0001) %MON trcstat_ptracer07_sd         =   3.08689919468382079E-08
(PID.TID 0000.0001) %MON trcstat_ptracer07_del2       =   0.00000000000000000E+00
(PID.TID 0000.0001) %MON trcstat_ptracer08_max        =   7.56470930778497651E-04
(PID.TID 0000.0001) %MON trcstat_ptracer08_min        =   5.04582512862097178E-35
(PID.TID 0000.0001) %MON trcstat_ptracer08_mean       =   2.25541932598888605E-05
(PID.TID 0000.0001) %MON trcstat_ptracer08_sd         =   1.18255891761831586E-04
(PID.TID 0000.0001) %MON trcstat_ptracer08_del2       =   0.00000000000000000E+00
(PID.TID 0000.0001) %MON trcstat_ptracer09_max        =   8.17768743732664172E-02
(PID.TID 0000.0001) %MON trcstat_ptracer09_min        =   1.00861624844685024E-32
(PID.TID 0000.0001) %MON trcstat_ptracer09_mean       =   3.43304920270967725E-03
(PID.TID 0000.0001) %MON trcstat_ptracer09_sd         =   1.47809224195060551E-02
(PID.TID 0000.0001) %MON trcstat_ptracer09_del2       =   0.00000000000000000E+00
(PID.TID 0000.0001) %MON trcstat_ptracer10_max        =   5.11105464832915107E-03
(PID.TID 0000.0001) %MON trcstat_ptracer10_min        =   6.30385155279281403E-34
(PID.TID 0000.0001) %MON trcstat_ptracer10_mean       =   2.14565575169354828E-04
(PID.TID 0000.0001) %MON trcstat_ptracer10_sd         =   9.23807651219128441E-04
(PID.TID 0000.0001) %MON trcstat_ptracer10_del2       =   0.00000000000000000E+00
(PID.TID 0000.0001) %MON trcstat_ptracer11_max        =   5.11105428995844463E-06
(PID.TID 0000.0001) %MON trcstat_ptracer11_min        =   6.30384208517495583E-37
(PID.TID 0000.0001) %MON trcstat_ptracer11_mean       =   2.14565575475347568E-07
(PID.TID 0000.0001) %MON trcstat_ptracer11_sd         =   9.23807650877396283E-07
(PID.TID 0000.0001) %MON trcstat_ptracer11_del2       =   0.00000000000000000E+00
(PID.TID 0000.0001) %MON trcstat_ptracer12_max        =   3.86691643606702426E-04
(PID.TID 0000.0001) %MON trcstat_ptracer12_min        =   4.27383905662043323E-26
(PID.TID 0000.0001) %MON trcstat_ptracer12_mean       =   1.15361296941822052E-05
(PID.TID 0000.0001) %MON trcstat_ptracer12_sd         =   6.02640774626526433E-05
(PID.TID 0000.0001) %MON trcstat_ptracer12_del2       =   0.00000000000000000E+00
(PID.TID 0000.0001) %MON trcstat_ptracer13_max        =   4.34440292829609605E-03
(PID.TID 0000.0001) %MON trcstat_ptracer13_min        =   1.88299623450393153E-05
(PID.TID 0000.0001) %MON trcstat_ptracer13_mean       =   1.26024305543117059E-03
(PID.TID 0000.0001) %MON trcstat_ptracer13_sd         =   1.54162072275011112E-03
(PID.TID 0000.0001) %MON trcstat_ptracer13_del2       =   0.00000000000000000E+00
(PID.TID 0000.0001) %MON trcstat_ptracer14_max        =   2.71525183018506003E-04
(PID.TID 0000.0001) %MON trcstat_ptracer14_min        =   1.17687264656495720E-06
(PID.TID 0000.0001) %MON trcstat_ptracer14_mean       =   7.87651909644481617E-05
(PID.TID 0000.0001) %MON trcstat_ptracer14_sd         =   9.63512951718819449E-05
(PID.TID 0000.0001) %MON trcstat_ptracer14_del2       =   0.00000000000000000E+00
(PID.TID 0000.0001) %MON trcstat_ptracer15_max        =   1.62390756434788799E-02
(PID.TID 0000.0001) %MON trcstat_ptracer15_min        =   1.14018975304670659E-03
(PID.TID 0000.0001) %MON trcstat_ptracer15_mean       =   5.48741139686256818E-03
(PID.TID 0000.0001) %MON trcstat_ptracer15_sd         =   5.16671330258282758E-03
(PID.TID 0000.0001) %MON trcstat_ptracer15_del2       =   0.00000000000000000E+00
(PID.TID 0000.0001) %MON trcstat_ptracer16_max        =   2.71525198979298090E-07
(PID.TID 0000.0001) %MON trcstat_ptracer16_min        =   1.17687251827499460E-09
(PID.TID 0000.0001) %MON trcstat_ptracer16_mean       =   7.87651914893149018E-08
(PID.TID 0000.0001) %MON trcstat_ptracer16_sd         =   9.63512972258236878E-08
(PID.TID 0000.0001) %MON trcstat_ptracer16_del2       =   0.00000000000000000E+00
(PID.TID 0000.0001) %MON trcstat_ptracer17_max        =   0.00000000000000000E+00
(PID.TID 0000.0001) %MON trcstat_ptracer17_min        =   0.00000000000000000E+00
(PID.TID 0000.0001) %MON trcstat_ptracer17_mean       =   0.00000000000000000E+00
(PID.TID 0000.0001) %MON trcstat_ptracer17_sd         =   0.00000000000000000E+00
(PID.TID 0000.0001) %MON trcstat_ptracer17_del2       =   0.00000000000000000E+00
(PID.TID 0000.0001) %MON trcstat_ptracer18_max        =   8.75415564260830382E-04
(PID.TID 0000.0001) %MON trcstat_ptracer18_min        =   1.69927258180094896E-27
(PID.TID 0000.0001) %MON trcstat_ptracer18_mean       =   2.62070717499159671E-05
(PID.TID 0000.0001) %MON trcstat_ptracer18_sd         =   1.37163869475003024E-04
(PID.TID 0000.0001) %MON trcstat_ptracer18_del2       =   0.00000000000000000E+00
(PID.TID 0000.0001) %MON trcstat_ptracer19_max        =   9.16521622399035741E-04
(PID.TID 0000.0001) %MON trcstat_ptracer19_min        =   1.69927258180094896E-27
(PID.TID 0000.0001) %MON trcstat_ptracer19_mean       =   2.71800547218430853E-05
(PID.TID 0000.0001) %MON trcstat_ptracer19_sd         =   1.42906945454386727E-04
(PID.TID 0000.0001) %MON trcstat_ptracer19_del2       =   0.00000000000000000E+00
(PID.TID 0000.0001) %MON trcstat_ptracer20_max        =   8.66911712887721126E-04
(PID.TID 0000.0001) %MON trcstat_ptracer20_min        =   1.37398500722733869E-35
(PID.TID 0000.0001) %MON trcstat_ptracer20_mean       =   2.58495485600693741E-05
(PID.TID 0000.0001) %MON trcstat_ptracer20_sd         =   1.35521722038582426E-04
(PID.TID 0000.0001) %MON trcstat_ptracer20_del2       =   0.00000000000000000E+00
(PID.TID 0000.0001) %MON trcstat_ptracer21_max        =   8.91991895373976640E-04
(PID.TID 0000.0001) %MON trcstat_ptracer21_min        =   1.37398500722733869E-35
(PID.TID 0000.0001) %MON trcstat_ptracer21_mean       =   2.65630962915754276E-05
(PID.TID 0000.0001) %MON trcstat_ptracer21_sd         =   1.39486862394301776E-04
(PID.TID 0000.0001) %MON trcstat_ptracer21_del2       =   0.00000000000000000E+00
(PID.TID 0000.0001) %MON trcstat_ptracer22_max        =   9.04441946246611851E-04
(PID.TID 0000.0001) %MON trcstat_ptracer22_min        =   1.69927258180094896E-27
(PID.TID 0000.0001) %MON trcstat_ptracer22_mean       =   2.68647897507030959E-05
(PID.TID 0000.0001) %MON trcstat_ptracer22_sd         =   1.41100772337533406E-04
(PID.TID 0000.0001) %MON trcstat_ptracer22_del2       =   0.00000000000000000E+00
(PID.TID 0000.0001) %MON trcstat_ptracer23_max        =   8.66911712887811982E-04
(PID.TID 0000.0001) %MON trcstat_ptracer23_min        =   1.37398500722733869E-35
(PID.TID 0000.0001) %MON trcstat_ptracer23_mean       =   2.58495485600721693E-05
(PID.TID 0000.0001) %MON trcstat_ptracer23_sd         =   1.35521722038597442E-04
(PID.TID 0000.0001) %MON trcstat_ptracer23_del2       =   0.00000000000000000E+00
(PID.TID 0000.0001) %MON trcstat_ptracer24_max        =   8.93039719819127466E-04
(PID.TID 0000.0001) %MON trcstat_ptracer24_min        =   1.37398500722733869E-35
(PID.TID 0000.0001) %MON trcstat_ptracer24_mean       =   2.66346207510487683E-05
(PID.TID 0000.0001) %MON trcstat_ptracer24_sd         =   1.39802817922301083E-04
(PID.TID 0000.0001) %MON trcstat_ptracer24_del2       =   0.00000000000000000E+00
(PID.TID 0000.0001) %MON trcstat_ptracer25_max        =   8.83915994251636950E-04
(PID.TID 0000.0001) %MON trcstat_ptracer25_min        =   1.37398500722733869E-35
(PID.TID 0000.0001) %MON trcstat_ptracer25_mean       =   2.62415295573430668E-05
(PID.TID 0000.0001) %MON trcstat_ptracer25_sd         =   1.37869250632223489E-04
(PID.TID 0000.0001) %MON trcstat_ptracer25_del2       =   0.00000000000000000E+00
(PID.TID 0000.0001) %MON trcstat_ptracer26_max        =   8.66911712887912488E-04
(PID.TID 0000.0001) %MON trcstat_ptracer26_min        =   1.37398500722733869E-35
(PID.TID 0000.0001) %MON trcstat_ptracer26_mean       =   2.58496975239173888E-05
(PID.TID 0000.0001) %MON trcstat_ptracer26_sd         =   1.35521704595310745E-04
(PID.TID 0000.0001) %MON trcstat_ptracer26_del2       =   0.00000000000000000E+00
(PID.TID 0000.0001) %MON trcstat_ptracer27_max        =   8.88198983516983983E-04
(PID.TID 0000.0001) %MON trcstat_ptracer27_min        =   1.37398500722733869E-35
(PID.TID 0000.0001) %MON trcstat_ptracer27_mean       =   2.64557656324658367E-05
(PID.TID 0000.0001) %MON trcstat_ptracer27_sd         =   1.38922427193173965E-04
(PID.TID 0000.0001) %MON trcstat_ptracer27_del2       =   0.00000000000000000E+00
(PID.TID 0000.0001) %MON trcstat_ptracer28_max        =   8.66838650376175641E-04
(PID.TID 0000.0001) %MON trcstat_ptracer28_min        =   1.69927258180091093E-27
(PID.TID 0000.0001) %MON trcstat_ptracer28_mean       =   2.58495485600729215E-05
(PID.TID 0000.0001) %MON trcstat_ptracer28_sd         =   1.35452880437239272E-04
(PID.TID 0000.0001) %MON trcstat_ptracer28_del2       =   0.00000000000000000E+00
(PID.TID 0000.0001) %MON trcstat_ptracer29_max        =   8.93042351161588231E-04
(PID.TID 0000.0001) %MON trcstat_ptracer29_min        =   1.37398500722733869E-35
(PID.TID 0000.0001) %MON trcstat_ptracer29_mean       =   2.66232413511195122E-05
(PID.TID 0000.0001) %MON trcstat_ptracer29_sd         =   1.39599313497662579E-04
(PID.TID 0000.0001) %MON trcstat_ptracer29_del2       =   0.00000000000000000E+00
(PID.TID 0000.0001) %MON trcstat_ptracer30_max        =   9.08895812062218526E-04
(PID.TID 0000.0001) %MON trcstat_ptracer30_min        =   1.69927258180091093E-27
(PID.TID 0000.0001) %MON trcstat_ptracer30_mean       =   2.69902297044958934E-05
(PID.TID 0000.0001) %MON trcstat_ptracer30_sd         =   1.41753292712872058E-04
(PID.TID 0000.0001) %MON trcstat_ptracer30_del2       =   0.00000000000000000E+00
(PID.TID 0000.0001) %MON trcstat_ptracer31_max        =   8.66838650644927025E-04
(PID.TID 0000.0001) %MON trcstat_ptracer31_min        =   1.69927258180094896E-27
(PID.TID 0000.0001) %MON trcstat_ptracer31_mean       =   2.58495485675828680E-05
(PID.TID 0000.0001) %MON trcstat_ptracer31_sd         =   1.35452880477661880E-04
(PID.TID 0000.0001) %MON trcstat_ptracer31_del2       =   0.00000000000000000E+00
(PID.TID 0000.0001) %MON trcstat_ptracer32_max        =   8.66911712887586468E-04
(PID.TID 0000.0001) %MON trcstat_ptracer32_min        =   1.37398500722733869E-35
(PID.TID 0000.0001) %MON trcstat_ptracer32_mean       =   2.58495485600635363E-05
(PID.TID 0000.0001) %MON trcstat_ptracer32_sd         =   1.35521722038556215E-04
(PID.TID 0000.0001) %MON trcstat_ptracer32_del2       =   0.00000000000000000E+00
(PID.TID 0000.0001) %MON trcstat_ptracer33_max        =   8.66911712887667783E-04
(PID.TID 0000.0001) %MON trcstat_ptracer33_min        =   1.37398500722733869E-35
(PID.TID 0000.0001) %MON trcstat_ptracer33_mean       =   2.58495485600658843E-05
(PID.TID 0000.0001) %MON trcstat_ptracer33_sd         =   1.35521722038569334E-04
(PID.TID 0000.0001) %MON trcstat_ptracer33_del2       =   0.00000000000000000E+00
(PID.TID 0000.0001) %MON trcstat_ptracer34_max        =   8.66911712887622789E-04
(PID.TID 0000.0001) %MON trcstat_ptracer34_min        =   1.37398500722733869E-35
(PID.TID 0000.0001) %MON trcstat_ptracer34_mean       =   2.58495485600645867E-05
(PID.TID 0000.0001) %MON trcstat_ptracer34_sd         =   1.35521722038562043E-04
(PID.TID 0000.0001) %MON trcstat_ptracer34_del2       =   0.00000000000000000E+00
(PID.TID 0000.0001) %MON trcstat_ptracer35_max        =   8.66911712887726438E-04
(PID.TID 0000.0001) %MON trcstat_ptracer35_min        =   1.37398500722733869E-35
(PID.TID 0000.0001) %MON trcstat_ptracer35_mean       =   2.58495485600695333E-05
(PID.TID 0000.0001) %MON trcstat_ptracer35_sd         =   1.35521722038583293E-04
(PID.TID 0000.0001) %MON trcstat_ptracer35_del2       =   0.00000000000000000E+00
(PID.TID 0000.0001) %MON trcstat_ptracer36_max        =   8.66911712888110788E-04
(PID.TID 0000.0001) %MON trcstat_ptracer36_min        =   1.37398500722733869E-35
(PID.TID 0000.0001) %MON trcstat_ptracer36_mean       =   2.58495485600804533E-05
(PID.TID 0000.0001) %MON trcstat_ptracer36_sd         =   1.35521722038631486E-04
(PID.TID 0000.0001) %MON trcstat_ptracer36_del2       =   0.00000000000000000E+00
(PID.TID 0000.0001) %MON trcstat_ptracer37_max        =   8.80131496755651513E-04
(PID.TID 0000.0001) %MON trcstat_ptracer37_min        =   1.37398500722733869E-35
(PID.TID 0000.0001) %MON trcstat_ptracer37_mean       =   2.63350207589139642E-05
(PID.TID 0000.0001) %MON trcstat_ptracer37_sd         =   1.37980345322497733E-04
(PID.TID 0000.0001) %MON trcstat_ptracer37_del2       =   0.00000000000000000E+00
(PID.TID 0000.0001) %MON trcstat_ptracer38_max        =   8.66911712888091056E-04
(PID.TID 0000.0001) %MON trcstat_ptracer38_min        =   1.37398500722733869E-35
(PID.TID 0000.0001) %MON trcstat_ptracer38_mean       =   2.58495485600798773E-05
(PID.TID 0000.0001) %MON trcstat_ptracer38_sd         =   1.35521722038628396E-04
(PID.TID 0000.0001) %MON trcstat_ptracer38_del2       =   0.00000000000000000E+00
(PID.TID 0000.0001) %MON trcstat_ptracer39_max        =   8.66838650376841450E-04
(PID.TID 0000.0001) %MON trcstat_ptracer39_min        =   1.69927258180091093E-27
(PID.TID 0000.0001) %MON trcstat_ptracer39_mean       =   2.58495485600927048E-05
(PID.TID 0000.0001) %MON trcstat_ptracer39_sd         =   1.35452880437342895E-04
(PID.TID 0000.0001) %MON trcstat_ptracer39_del2       =   0.00000000000000000E+00
(PID.TID 0000.0001) %MON trcstat_ptracer40_max        =   8.85979547496301939E-04
(PID.TID 0000.0001) %MON trcstat_ptracer40_min        =   1.37398500722733869E-35
(PID.TID 0000.0001) %MON trcstat_ptracer40_mean       =   2.64496866719107288E-05
(PID.TID 0000.0001) %MON trcstat_ptracer40_sd         =   1.38603351198736841E-04
(PID.TID 0000.0001) %MON trcstat_ptracer40_del2       =   0.00000000000000000E+00
(PID.TID 0000.0001) %MON trcstat_ptracer41_max        =   8.66838650644928543E-04
(PID.TID 0000.0001) %MON trcstat_ptracer41_min        =   1.69927258180094896E-27
(PID.TID 0000.0001) %MON trcstat_ptracer41_mean       =   2.58495485675829087E-05
(PID.TID 0000.0001) %MON trcstat_ptracer41_sd         =   1.35452880477662124E-04
(PID.TID 0000.0001) %MON trcstat_ptracer41_del2       =   0.00000000000000000E+00
(PID.TID 0000.0001) %MON trcstat_ptracer42_max        =   8.66838650376547957E-04
(PID.TID 0000.0001) %MON trcstat_ptracer42_min        =   1.69927258180091093E-27
(PID.TID 0000.0001) %MON trcstat_ptracer42_mean       =   2.58499880063741045E-05
(PID.TID 0000.0001) %MON trcstat_ptracer42_sd         =   1.35452834399674209E-04
(PID.TID 0000.0001) %MON trcstat_ptracer42_del2       =   0.00000000000000000E+00
(PID.TID 0000.0001) %MON trcstat_ptracer43_max        =   8.69664695436119526E-04
(PID.TID 0000.0001) %MON trcstat_ptracer43_min        =   1.69927258180091093E-27
(PID.TID 0000.0001) %MON trcstat_ptracer43_mean       =   2.60525752859137591E-05
(PID.TID 0000.0001) %MON trcstat_ptracer43_sd         =   1.36318075173539938E-04
(PID.TID 0000.0001) %MON trcstat_ptracer43_del2       =   0.00000000000000000E+00
(PID.TID 0000.0001) %MON trcstat_ptracer44_max        =   8.93932187118673914E-04
(PID.TID 0000.0001) %MON trcstat_ptracer44_min        =   1.37398500722733869E-35
(PID.TID 0000.0001) %MON trcstat_ptracer44_mean       =   2.66174338198515284E-05
(PID.TID 0000.0001) %MON trcstat_ptracer44_sd         =   1.39789101704443532E-04
(PID.TID 0000.0001) %MON trcstat_ptracer44_del2       =   0.00000000000000000E+00
(PID.TID 0000.0001) %MON trcstat_ptracer45_max        =   8.66838650644737832E-04
(PID.TID 0000.0001) %MON trcstat_ptracer45_min        =   1.69927258180094896E-27
(PID.TID 0000.0001) %MON trcstat_ptracer45_mean       =   2.58495485675772912E-05
(PID.TID 0000.0001) %MON trcstat_ptracer45_sd         =   1.35452880477632444E-04
(PID.TID 0000.0001) %MON trcstat_ptracer45_del2       =   0.00000000000000000E+00
(PID.TID 0000.0001) %MON trcstat_ptracer46_max        =   8.76507927469628661E-04
(PID.TID 0000.0001) %MON trcstat_ptracer46_min        =   1.37398500722733869E-35
(PID.TID 0000.0001) %MON trcstat_ptracer46_mean       =   2.61951578660000362E-05
(PID.TID 0000.0001) %MON trcstat_ptracer46_sd         =   1.37254451581049827E-04
(PID.TID 0000.0001) %MON trcstat_ptracer46_del2       =   0.00000000000000000E+00
(PID.TID 0000.0001) %MON trcstat_ptracer47_max        =   8.66838650376299349E-04
(PID.TID 0000.0001) %MON trcstat_ptracer47_min        =   1.69927258180091093E-27
(PID.TID 0000.0001) %MON trcstat_ptracer47_mean       =   2.58495485600766213E-05
(PID.TID 0000.0001) %MON trcstat_ptracer47_sd         =   1.35452880437258544E-04
(PID.TID 0000.0001) %MON trcstat_ptracer47_del2       =   0.00000000000000000E+00
(PID.TID 0000.0001) %MON trcstat_ptracer48_max        =   8.67627017960477444E-04
(PID.TID 0000.0001) %MON trcstat_ptracer48_min        =   1.37398500722733869E-35
(PID.TID 0000.0001) %MON trcstat_ptracer48_mean       =   2.59979951194808180E-05
(PID.TID 0000.0001) %MON trcstat_ptracer48_sd         =   1.36135278796621813E-04
(PID.TID 0000.0001) %MON trcstat_ptracer48_del2       =   0.00000000000000000E+00
(PID.TID 0000.0001) %MON trcstat_ptracer49_max        =   8.97436047095893745E-04
(PID.TID 0000.0001) %MON trcstat_ptracer49_min        =   1.37398500722733869E-35
(PID.TID 0000.0001) %MON trcstat_ptracer49_mean       =   2.67324441619220187E-05
(PID.TID 0000.0001) %MON trcstat_ptracer49_sd         =   1.40398303962269302E-04
(PID.TID 0000.0001) %MON trcstat_ptracer49_del2       =   0.00000000000000000E+00
(PID.TID 0000.0001) %MON trcstat_ptracer50_max        =   8.66838650376175967E-04
(PID.TID 0000.0001) %MON trcstat_ptracer50_min        =   1.69927258180091093E-27
(PID.TID 0000.0001) %MON trcstat_ptracer50_mean       =   2.58495928911247717E-05
(PID.TID 0000.0001) %MON trcstat_ptracer50_sd         =   1.35452873858071641E-04
(PID.TID 0000.0001) %MON trcstat_ptracer50_del2       =   0.00000000000000000E+00
(PID.TID 0000.0001) %MON trcstat_ptracer51_max        =   8.66911712888727157E-04
(PID.TID 0000.0001) %MON trcstat_ptracer51_min        =   1.37398500722733869E-35
(PID.TID 0000.0001) %MON trcstat_ptracer51_mean       =   2.58495485600985120E-05
(PID.TID 0000.0001) %MON trcstat_ptracer51_sd         =   1.35521722038727492E-04
(PID.TID 0000.0001) %MON trcstat_ptracer51_del2       =   0.00000000000000000E+00
(PID.TID 0000.0001) %MON trcstat_ptracer52_max        =   9.02965901242226286E-04
(PID.TID 0000.0001) %MON trcstat_ptracer52_min        =   1.69927258180091093E-27
(PID.TID 0000.0001) %MON trcstat_ptracer52_mean       =   2.68433993838268595E-05
(PID.TID 0000.0001) %MON trcstat_ptracer52_sd         =   1.40949621624877571E-04
(PID.TID 0000.0001) %MON trcstat_ptracer52_del2       =   0.00000000000000000E+00
(PID.TID 0000.0001) %MON trcstat_ptracer53_max        =   8.66838650644636676E-04
(PID.TID 0000.0001) %MON trcstat_ptracer53_min        =   1.69927258180094896E-27
(PID.TID 0000.0001) %MON trcstat_ptracer53_mean       =   2.58495485675742995E-05
(PID.TID 0000.0001) %MON trcstat_ptracer53_sd         =   1.35452880477616777E-04
(PID.TID 0000.0001) %MON trcstat_ptracer53_del2       =   0.00000000000000000E+00
(PID.TID 0000.0001) %MON trcstat_ptracer54_max        =   9.09411979591510391E-04
(PID.TID 0000.0001) %MON trcstat_ptracer54_min        =   1.69927258180091093E-27
(PID.TID 0000.0001) %MON trcstat_ptracer54_mean       =   2.69932600627001758E-05
(PID.TID 0000.0001) %MON trcstat_ptracer54_sd         =   1.41852149323258250E-04
(PID.TID 0000.0001) %MON trcstat_ptracer54_del2       =   0.00000000000000000E+00
(PID.TID 0000.0001) %MON trcstat_ptracer55_max        =   8.88092898221631345E-04
(PID.TID 0000.0001) %MON trcstat_ptracer55_min        =   1.37398500722733869E-35
(PID.TID 0000.0001) %MON trcstat_ptracer55_mean       =   2.64981720301831347E-05
(PID.TID 0000.0001) %MON trcstat_ptracer55_sd         =   1.38920682047690032E-04
(PID.TID 0000.0001) %MON trcstat_ptracer55_del2       =   0.00000000000000000E+00
(PID.TID 0000.0001) %MON trcstat_ptracer56_max        =   8.66911712887738473E-04
(PID.TID 0000.0001) %MON trcstat_ptracer56_min        =   1.37398500722733869E-35
(PID.TID 0000.0001) %MON trcstat_ptracer56_mean       =   2.58495485600699060E-05
(PID.TID 0000.0001) %MON trcstat_ptracer56_sd         =   1.35521722038585245E-04
(PID.TID 0000.0001) %MON trcstat_ptracer56_del2       =   0.00000000000000000E+00
(PID.TID 0000.0001) %MON trcstat_ptracer57_max        =   9.04422858561671947E-04
(PID.TID 0000.0001) %MON trcstat_ptracer57_min        =   1.69927258180094896E-27
(PID.TID 0000.0001) %MON trcstat_ptracer57_mean       =   2.68761448666762092E-05
(PID.TID 0000.0001) %MON trcstat_ptracer57_sd         =   1.41144825715959694E-04
(PID.TID 0000.0001) %MON trcstat_ptracer57_del2       =   0.00000000000000000E+00
(PID.TID 0000.0001) %MON trcstat_ptracer58_max        =   8.66838650645001185E-04
(PID.TID 0000.0001) %MON trcstat_ptracer58_min        =   1.69927258180094896E-27
(PID.TID 0000.0001) %MON trcstat_ptracer58_mean       =   2.58495485675850568E-05
(PID.TID 0000.0001) %MON trcstat_ptracer58_sd         =   1.35452880477673454E-04
(PID.TID 0000.0001) %MON trcstat_ptracer58_del2       =   0.00000000000000000E+00
(PID.TID 0000.0001) %MON trcstat_ptracer59_max        =   8.66911712888163806E-04
(PID.TID 0000.0001) %MON trcstat_ptracer59_min        =   1.37398500722733869E-35
(PID.TID 0000.0001) %MON trcstat_ptracer59_mean       =   2.58495485600820118E-05
(PID.TID 0000.0001) %MON trcstat_ptracer59_sd         =   1.35521722038639726E-04
(PID.TID 0000.0001) %MON trcstat_ptracer59_del2       =   0.00000000000000000E+00
(PID.TID 0000.0001) %MON trcstat_ptracer60_max        =   8.98889274369986629E-04
(PID.TID 0000.0001) %MON trcstat_ptracer60_min        =   1.37398500722733869E-35
(PID.TID 0000.0001) %MON trcstat_ptracer60_mean       =   2.67233269386418948E-05
(PID.TID 0000.0001) %MON trcstat_ptracer60_sd         =   1.40304853038280641E-04
(PID.TID 0000.0001) %MON trcstat_ptracer60_del2       =   0.00000000000000000E+00
(PID.TID 0000.0001) %MON trcstat_ptracer61_max        =   8.89879031804077813E-04
(PID.TID 0000.0001) %MON trcstat_ptracer61_min        =   1.37398500722733869E-35
(PID.TID 0000.0001) %MON trcstat_ptracer61_mean       =   2.65307713555315163E-05
(PID.TID 0000.0001) %MON trcstat_ptracer61_sd         =   1.39237440480597237E-04
(PID.TID 0000.0001) %MON trcstat_ptracer61_del2       =   0.00000000000000000E+00
(PID.TID 0000.0001) %MON trcstat_ptracer62_max        =   8.66838650376378279E-04
(PID.TID 0000.0001) %MON trcstat_ptracer62_min        =   1.69927258180091093E-27
(PID.TID 0000.0001) %MON trcstat_ptracer62_mean       =   2.58495485600789659E-05
(PID.TID 0000.0001) %MON trcstat_ptracer62_sd         =   1.35452880437270795E-04
(PID.TID 0000.0001) %MON trcstat_ptracer62_del2       =   0.00000000000000000E+00
(PID.TID 0000.0001) %MON trcstat_ptracer63_max        =   8.77764846253700965E-04
(PID.TID 0000.0001) %MON trcstat_ptracer63_min        =   1.69927258180094896E-27
(PID.TID 0000.0001) %MON trcstat_ptracer63_mean       =   2.62697086766826534E-05
(PID.TID 0000.0001) %MON trcstat_ptracer63_sd         =   1.37479783231122892E-04
(PID.TID 0000.0001) %MON trcstat_ptracer63_del2       =   0.00000000000000000E+00
(PID.TID 0000.0001) %MON trcstat_ptracer64_max        =   8.66911712887896550E-04
(PID.TID 0000.0001) %MON trcstat_ptracer64_min        =   1.37398500722733869E-35
(PID.TID 0000.0001) %MON trcstat_ptracer64_mean       =   2.58495485600741378E-05
(PID.TID 0000.0001) %MON trcstat_ptracer64_sd         =   1.35521722038598093E-04
(PID.TID 0000.0001) %MON trcstat_ptracer64_del2       =   0.00000000000000000E+00
(PID.TID 0000.0001) %MON trcstat_ptracer65_max        =   9.02140339335873154E-04
(PID.TID 0000.0001) %MON trcstat_ptracer65_min        =   1.69927258180094896E-27
(PID.TID 0000.0001) %MON trcstat_ptracer65_mean       =   2.68008690020655624E-05
(PID.TID 0000.0001) %MON trcstat_ptracer65_sd         =   1.40757078865340291E-04
(PID.TID 0000.0001) %MON trcstat_ptracer65_del2       =   0.00000000000000000E+00
(PID.TID 0000.0001) %MON trcstat_ptracer66_max        =   8.66838650376359847E-04
(PID.TID 0000.0001) %MON trcstat_ptracer66_min        =   1.69927258180091093E-27
(PID.TID 0000.0001) %MON trcstat_ptracer66_mean       =   2.58496864698659700E-05
(PID.TID 0000.0001) %MON trcstat_ptracer66_sd         =   1.35452862429868585E-04
(PID.TID 0000.0001) %MON trcstat_ptracer66_del2       =   0.00000000000000000E+00
(PID.TID 0000.0001) %MON trcstat_ptracer67_max        =   8.73096343236731210E-04
(PID.TID 0000.0001) %MON trcstat_ptracer67_min        =   1.69927258180091093E-27
(PID.TID 0000.0001) %MON trcstat_ptracer67_mean       =   2.61391580185961955E-05
(PID.TID 0000.0001) %MON trcstat_ptracer67_sd         =   1.36769969025421229E-04
(PID.TID 0000.0001) %MON trcstat_ptracer67_del2       =   0.00000000000000000E+00
(PID.TID 0000.0001) %MON trcstat_ptracer68_max        =   8.66838650644533460E-04
(PID.TID 0000.0001) %MON trcstat_ptracer68_min        =   1.69927258180094896E-27
(PID.TID 0000.0001) %MON trcstat_ptracer68_mean       =   2.58495485675712366E-05
(PID.TID 0000.0001) %MON trcstat_ptracer68_sd         =   1.35452880477600649E-04
(PID.TID 0000.0001) %MON trcstat_ptracer68_del2       =   0.00000000000000000E+00
(PID.TID 0000.0001) %MON trcstat_ptracer69_max        =   8.93440156553898979E-04
(PID.TID 0000.0001) %MON trcstat_ptracer69_min        =   1.37398500722733869E-35
(PID.TID 0000.0001) %MON trcstat_ptracer69_mean       =   2.66177984317768633E-05
(PID.TID 0000.0001) %MON trcstat_ptracer69_sd         =   1.39742308589369733E-04
(PID.TID 0000.0001) %MON trcstat_ptracer69_del2       =   0.00000000000000000E+00
(PID.TID 0000.0001) %MON trcstat_ptracer70_max        =   9.11463205551069381E-04
(PID.TID 0000.0001) %MON trcstat_ptracer70_min        =   1.69927258180094896E-27
(PID.TID 0000.0001) %MON trcstat_ptracer70_mean       =   2.70189140601806352E-05
(PID.TID 0000.0001) %MON trcstat_ptracer70_sd         =   1.42044766142850385E-04
(PID.TID 0000.0001) %MON trcstat_ptracer70_del2       =   0.00000000000000000E+00
(PID.TID 0000.0001) %MON trcstat_ptracer71_max        =   8.99312517426079398E-04
(PID.TID 0000.0001) %MON trcstat_ptracer71_min        =   1.69927258180094896E-27
(PID.TID 0000.0001) %MON trcstat_ptracer71_mean       =   2.67521896933627165E-05
(PID.TID 0000.0001) %MON trcstat_ptracer71_sd         =   1.40384174460528614E-04
(PID.TID 0000.0001) %MON trcstat_ptracer71_del2       =   0.00000000000000000E+00
(PID.TID 0000.0001) %MON trcstat_ptracer72_max        =   8.66911712887872806E-04
(PID.TID 0000.0001) %MON trcstat_ptracer72_min        =   1.37398500722733869E-35
(PID.TID 0000.0001) %MON trcstat_ptracer72_mean       =   2.58528424393629209E-05
(PID.TID 0000.0001) %MON trcstat_ptracer72_sd         =   1.35529687826199273E-04
(PID.TID 0000.0001) %MON trcstat_ptracer72_del2       =   0.00000000000000000E+00
(PID.TID 0000.0001) %MON trcstat_ptracer73_max        =   9.07611888471574965E-04
(PID.TID 0000.0001) %MON trcstat_ptracer73_min        =   1.69927258180091093E-27
(PID.TID 0000.0001) %MON trcstat_ptracer73_mean       =   2.69819576678394165E-05
(PID.TID 0000.0001) %MON trcstat_ptracer73_sd         =   1.41637678716931357E-04
(PID.TID 0000.0001) %MON trcstat_ptracer73_del2       =   0.00000000000000000E+00
(PID.TID 0000.0001) %MON trcstat_ptracer74_max        =   8.83549651634499907E-04
(PID.TID 0000.0001) %MON trcstat_ptracer74_min        =   1.69927258180091093E-27
(PID.TID 0000.0001) %MON trcstat_ptracer74_mean       =   2.64209195925172818E-05
(PID.TID 0000.0001) %MON trcstat_ptracer74_sd         =   1.38334798899762337E-04
(PID.TID 0000.0001) %MON trcstat_ptracer74_del2       =   0.00000000000000000E+00
(PID.TID 0000.0001) %MON trcstat_ptracer75_max        =   8.66911712888529399E-04
(PID.TID 0000.0001) %MON trcstat_ptracer75_min        =   1.37398500722733869E-35
(PID.TID 0000.0001) %MON trcstat_ptracer75_mean       =   2.58495485600927353E-05
(PID.TID 0000.0001) %MON trcstat_ptracer75_sd         =   1.35521722038696674E-04
(PID.TID 0000.0001) %MON trcstat_ptracer75_del2       =   0.00000000000000000E+00
(PID.TID 0000.0001) %MON trcstat_ptracer76_max        =   8.93438416500587904E-04
(PID.TID 0000.0001) %MON trcstat_ptracer76_min        =   1.37398500722733869E-35
(PID.TID 0000.0001) %MON trcstat_ptracer76_mean       =   2.65861436282916154E-05
(PID.TID 0000.0001) %MON trcstat_ptracer76_sd         =   1.39669851396422934E-04
(PID.TID 0000.0001) %MON trcstat_ptracer76_del2       =   0.00000000000000000E+00
(PID.TID 0000.0001) %MON trcstat_ptracer77_max        =   8.66911712888729868E-04
(PID.TID 0000.0001) %MON trcstat_ptracer77_min        =   1.37398500722733869E-35
(PID.TID 0000.0001) %MON trcstat_ptracer77_mean       =   2.58495485600985866E-05
(PID.TID 0000.0001) %MON trcstat_ptracer77_sd         =   1.35521722038727926E-04
(PID.TID 0000.0001) %MON trcstat_ptracer77_del2       =   0.00000000000000000E+00
(PID.TID 0000.0001) %MON trcstat_ptracer78_max        =   8.66838650376838414E-04
(PID.TID 0000.0001) %MON trcstat_ptracer78_min        =   1.69927258180091093E-27
(PID.TID 0000.0001) %MON trcstat_ptracer78_mean       =   2.58495485600926065E-05
(PID.TID 0000.0001) %MON trcstat_ptracer78_sd         =   1.35452880437342407E-04
(PID.TID 0000.0001) %MON trcstat_ptracer78_del2       =   0.00000000000000000E+00
(PID.TID 0000.0001) %MON trcstat_ptracer79_max        =   8.66838650645083476E-04
(PID.TID 0000.0001) %MON trcstat_ptracer79_min        =   1.69927258180094896E-27
(PID.TID 0000.0001) %MON trcstat_ptracer79_mean       =   2.58495485675874861E-05
(PID.TID 0000.0001) %MON trcstat_ptracer79_sd         =   1.35452880477686220E-04
(PID.TID 0000.0001) %MON trcstat_ptracer79_del2       =   0.00000000000000000E+00
(PID.TID 0000.0001) %MON trcstat_ptracer80_max        =   8.66911712887796912E-04
(PID.TID 0000.0001) %MON trcstat_ptracer80_min        =   1.37398500722733869E-35
(PID.TID 0000.0001) %MON trcstat_ptracer80_mean       =   2.58549567940285513E-05
(PID.TID 0000.0001) %MON trcstat_ptracer80_sd         =   1.35527855769926932E-04
(PID.TID 0000.0001) %MON trcstat_ptracer80_del2       =   0.00000000000000000E+00
(PID.TID 0000.0001) %MON trcstat_ptracer81_max        =   8.66911712888019498E-04
(PID.TID 0000.0001) %MON trcstat_ptracer81_min        =   1.37398500722733869E-35
(PID.TID 0000.0001) %MON trcstat_ptracer81_mean       =   2.58495485600785932E-05
(PID.TID 0000.0001) %MON trcstat_ptracer81_sd         =   1.35521722038631811E-04
(PID.TID 0000.0001) %MON trcstat_ptracer81_del2       =   0.00000000000000000E+00
(PID.TID 0000.0001) %MON trcstat_ptracer82_max        =   8.66911712888398644E-04
(PID.TID 0000.0001) %MON trcstat_ptracer82_min        =   1.37398500722733869E-35
(PID.TID 0000.0001) %MON trcstat_ptracer82_mean       =   2.58495485600888965E-05
(PID.TID 0000.0001) %MON trcstat_ptracer82_sd         =   1.35521722038676291E-04
(PID.TID 0000.0001) %MON trcstat_ptracer82_del2       =   0.00000000000000000E+00
(PID.TID 0000.0001) %MON trcstat_ptracer83_max        =   8.66838650376332309E-04
(PID.TID 0000.0001) %MON trcstat_ptracer83_min        =   1.69927258180091093E-27
(PID.TID 0000.0001) %MON trcstat_ptracer83_mean       =   2.58495485600775971E-05
(PID.TID 0000.0001) %MON trcstat_ptracer83_sd         =   1.35452880437263639E-04
(PID.TID 0000.0001) %MON trcstat_ptracer83_del2       =   0.00000000000000000E+00
(PID.TID 0000.0001) %MON trcstat_ptracer84_max        =   8.66838650975772077E-04
(PID.TID 0000.0001) %MON trcstat_ptracer84_min        =   1.69927258180094896E-27
(PID.TID 0000.0001) %MON trcstat_ptracer84_mean       =   2.59219381965245734E-05
(PID.TID 0000.0001) %MON trcstat_ptracer84_sd         =   1.35687421180260133E-04
(PID.TID 0000.0001) %MON trcstat_ptracer84_del2       =   0.00000000000000000E+00
(PID.TID 0000.0001) %MON trcstat_ptracer85_max        =   8.66838650376595878E-04
(PID.TID 0000.0001) %MON trcstat_ptracer85_min        =   1.69927258180091093E-27
(PID.TID 0000.0001) %MON trcstat_ptracer85_mean       =   2.58497574111366671E-05
(PID.TID 0000.0001) %MON trcstat_ptracer85_sd         =   1.35452853659375979E-04
(PID.TID 0000.0001) %MON trcstat_ptracer85_del2       =   0.00000000000000000E+00
(PID.TID 0000.0001) %MON trcstat_ptracer86_max        =   8.66838650376266606E-04
(PID.TID 0000.0001) %MON trcstat_ptracer86_min        =   1.69927258180091093E-27
(PID.TID 0000.0001) %MON trcstat_ptracer86_mean       =   2.58495485600756421E-05
(PID.TID 0000.0001) %MON trcstat_ptracer86_sd         =   1.35452880437253421E-04
(PID.TID 0000.0001) %MON trcstat_ptracer86_del2       =   0.00000000000000000E+00
(PID.TID 0000.0001) %MON trcstat_ptracer87_max        =   8.86958229567959668E-04
(PID.TID 0000.0001) %MON trcstat_ptracer87_min        =   1.69927258180094896E-27
(PID.TID 0000.0001) %MON trcstat_ptracer87_mean       =   2.64535519532589794E-05
(PID.TID 0000.0001) %MON trcstat_ptracer87_sd         =   1.38632192367220132E-04
(PID.TID 0000.0001) %MON trcstat_ptracer87_del2       =   0.00000000000000000E+00
(PID.TID 0000.0001) %MON trcstat_ptracer88_max        =   8.96928949845142713E-04
(PID.TID 0000.0001) %MON trcstat_ptracer88_min        =   1.37398500722733869E-35
(PID.TID 0000.0001) %MON trcstat_ptracer88_mean       =   2.66445623177918287E-05
(PID.TID 0000.0001) %MON trcstat_ptracer88_sd         =   1.39905614048628550E-04
(PID.TID 0000.0001) %MON trcstat_ptracer88_del2       =   0.00000000000000000E+00
(PID.TID 0000.0001) %MON trcstat_ptracer89_max        =   8.66911712888009198E-04
(PID.TID 0000.0001) %MON trcstat_ptracer89_min        =   1.37398500722733869E-35
(PID.TID 0000.0001) %MON trcstat_ptracer89_mean       =   2.58495485600782849E-05
(PID.TID 0000.0001) %MON trcstat_ptracer89_sd         =   1.35521722038630131E-04
(PID.TID 0000.0001) %MON trcstat_ptracer89_del2       =   0.00000000000000000E+00
(PID.TID 0000.0001) %MON trcstat_ptracer90_max        =   8.66838650376331224E-04
(PID.TID 0000.0001) %MON trcstat_ptracer90_min        =   1.69927258180091093E-27
(PID.TID 0000.0001) %MON trcstat_ptracer90_mean       =   2.58500571873555640E-05
(PID.TID 0000.0001) %MON trcstat_ptracer90_sd         =   1.35452841826556560E-04
(PID.TID 0000.0001) %MON trcstat_ptracer90_del2       =   0.00000000000000000E+00
(PID.TID 0000.0001) %MON trcstat_ptracer91_max        =   8.66911712887838437E-04
(PID.TID 0000.0001) %MON trcstat_ptracer91_min        =   1.37398500722733869E-35
(PID.TID 0000.0001) %MON trcstat_ptracer91_mean       =   2.58498088385257071E-05
(PID.TID 0000.0001) %MON trcstat_ptracer91_sd         =   1.35521696126978780E-04
(PID.TID 0000.0001) %MON trcstat_ptracer91_del2       =   0.00000000000000000E+00
(PID.TID 0000.0001) %MON trcstat_ptracer92_max        =   8.92139804397481585E-04
(PID.TID 0000.0001) %MON trcstat_ptracer92_min        =   1.37398500722733869E-35
(PID.TID 0000.0001) %MON trcstat_ptracer92_mean       =   2.66062202511467707E-05
(PID.TID 0000.0001) %MON trcstat_ptracer92_sd         =   1.39650149401765705E-04
(PID.TID 0000.0001) %MON trcstat_ptracer92_del2       =   0.00000000000000000E+00
(PID.TID 0000.0001) %MON trcstat_ptracer93_max        =   8.66911712887808513E-04
(PID.TID 0000.0001) %MON trcstat_ptracer93_min        =   1.37398500722733869E-35
(PID.TID 0000.0001) %MON trcstat_ptracer93_mean       =   2.58578073535457796E-05
(PID.TID 0000.0001) %MON trcstat_ptracer93_sd         =   1.35533289292280064E-04
(PID.TID 0000.0001) %MON trcstat_ptracer93_del2       =   0.00000000000000000E+00
(PID.TID 0000.0001) %MON trcstat_ptracer94_max        =   8.92214412834495653E-04
(PID.TID 0000.0001) %MON trcstat_ptracer94_min        =   1.37398500722733869E-35
(PID.TID 0000.0001) %MON trcstat_ptracer94_mean       =   2.65632671414599740E-05
(PID.TID 0000.0001) %MON trcstat_ptracer94_sd         =   1.39538420326347626E-04
(PID.TID 0000.0001) %MON trcstat_ptracer94_del2       =   0.00000000000000000E+00
(PID.TID 0000.0001) %MON trcstat_ptracer95_max        =   8.66911712888569080E-04
(PID.TID 0000.0001) %MON trcstat_ptracer95_min        =   1.37398500722733869E-35
(PID.TID 0000.0001) %MON trcstat_ptracer95_mean       =   2.58495485600938940E-05
(PID.TID 0000.0001) %MON trcstat_ptracer95_sd         =   1.35521722038702908E-04
(PID.TID 0000.0001) %MON trcstat_ptracer95_del2       =   0.00000000000000000E+00
(PID.TID 0000.0001) %MON trcstat_ptracer96_max        =   1.23655117067270886E-07
(PID.TID 0000.0001) %MON trcstat_ptracer96_min        =   9.65393086571627877E-34
(PID.TID 0000.0001) %MON trcstat_ptracer96_mean       =   1.63517103063154066E-08
(PID.TID 0000.0001) %MON trcstat_ptracer96_sd         =   2.99086412197062263E-08
(PID.TID 0000.0001) %MON trcstat_ptracer96_del2       =   0.00000000000000000E+00
(PID.TID 0000.0001) %MON trcstat_ptracer97_max        =   1.23654469446960794E-07
(PID.TID 0000.0001) %MON trcstat_ptracer97_min        =   9.65393086570338279E-34
(PID.TID 0000.0001) %MON trcstat_ptracer97_mean       =   1.63516917614588006E-08
(PID.TID 0000.0001) %MON trcstat_ptracer97_sd         =   2.99085789999646511E-08
(PID.TID 0000.0001) %MON trcstat_ptracer97_del2       =   0.00000000000000000E+00
(PID.TID 0000.0001) %MON trcstat_ptracer98_max        =   3.27301513921045696E-04
(PID.TID 0000.0001) %MON trcstat_ptracer98_min        =   9.76485672195664271E-28
(PID.TID 0000.0001) %MON trcstat_ptracer98_mean       =   8.17135112651791170E-06
(PID.TID 0000.0001) %MON trcstat_ptracer98_sd         =   4.27859598623366925E-05
(PID.TID 0000.0001) %MON trcstat_ptracer98_del2       =   0.00000000000000000E+00
(PID.TID 0000.0001) %MON trcstat_ptracer99_max        =   3.58741443798941864E-04
(PID.TID 0000.0001) %MON trcstat_ptracer99_min        =   1.01535997353133932E-27
(PID.TID 0000.0001) %MON trcstat_ptracer99_mean       =   9.02117117766074422E-06
(PID.TID 0000.0001) %MON trcstat_ptracer99_sd         =   4.72313178521152697E-05
(PID.TID 0000.0001) %MON trcstat_ptracer99_del2       =   0.00000000000000000E+00
(PID.TID 0000.0001) %MON trcstat_ptracer0a_max        =   1.76957307975230679E-04
(PID.TID 0000.0001) %MON trcstat_ptracer0a_min        =   5.72576718806077649E-36
(PID.TID 0000.0001) %MON trcstat_ptracer0a_mean       =   4.12694108882106398E-06
(PID.TID 0000.0001) %MON trcstat_ptracer0a_sd         =   2.18086568559269488E-05
(PID.TID 0000.0001) %MON trcstat_ptracer0a_del2       =   0.00000000000000000E+00
(PID.TID 0000.0001) %MON trcstat_ptracer0b_max        =   1.72396870137462931E-04
(PID.TID 0000.0001) %MON trcstat_ptracer0b_min        =   6.63196457273488750E-36
(PID.TID 0000.0001) %MON trcstat_ptracer0b_mean       =   3.93543590695891082E-06
(PID.TID 0000.0001) %MON trcstat_ptracer0b_sd         =   2.08295110896637919E-05
(PID.TID 0000.0001) %MON trcstat_ptracer0b_del2       =   0.00000000000000000E+00
(PID.TID 0000.0001) %MON trcstat_ptracer0c_max        =   4.42421163394163567E-04
(PID.TID 0000.0001) %MON trcstat_ptracer0c_min        =   1.22104991005894379E-27
(PID.TID 0000.0001) %MON trcstat_ptracer0c_mean       =   1.11652661579491559E-05
(PID.TID 0000.0001) %MON trcstat_ptracer0c_sd         =   5.83494390334964269E-05
(PID.TID 0000.0001) %MON trcstat_ptracer0c_del2       =   0.00000000000000000E+00
(PID.TID 0000.0001) %MON trcstat_ptracer0d_max        =   1.64986767331091647E-04
(PID.TID 0000.0001) %MON trcstat_ptracer0d_min        =   4.67778588601700900E-36
(PID.TID 0000.0001) %MON trcstat_ptracer0d_mean       =   3.98889979434644911E-06
(PID.TID 0000.0001) %MON trcstat_ptracer0d_sd         =   2.10196605513599376E-05
(PID.TID 0000.0001) %MON trcstat_ptracer0d_del2       =   0.00000000000000000E+00
(PID.TID 0000.0001) %MON trcstat_ptracer0e_max        =   1.95056718344818210E-04
(PID.TID 0000.0001) %MON trcstat_ptracer0e_min        =   6.46071485989287859E-36
(PID.TID 0000.0001) %MON trcstat_ptracer0e_mean       =   4.49119800067179690E-06
(PID.TID 0000.0001) %MON trcstat_ptracer0e_sd         =   2.37791024203522630E-05
(PID.TID 0000.0001) %MON trcstat_ptracer0e_del2       =   0.00000000000000000E+00
(PID.TID 0000.0001) %MON trcstat_ptracer0f_max        =   1.20684508685783016E-04
(PID.TID 0000.0001) %MON trcstat_ptracer0f_min        =   2.83474128961602242E-36
(PID.TID 0000.0001) %MON trcstat_ptracer0f_mean       =   3.03378992023728562E-06
(PID.TID 0000.0001) %MON trcstat_ptracer0f_sd         =   1.58777987043960550E-05
(PID.TID 0000.0001) %MON trcstat_ptracer0f_del2       =   0.00000000000000000E+00
(PID.TID 0000.0001) %MON trcstat_ptracer0g_max        =   1.61639277932023115E-04
(PID.TID 0000.0001) %MON trcstat_ptracer0g_min        =   6.62501495656833734E-36
(PID.TID 0000.0001) %MON trcstat_ptracer0g_mean       =   3.70503389159963867E-06
(PID.TID 0000.0001) %MON trcstat_ptracer0g_sd         =   1.95790551779790682E-05
(PID.TID 0000.0001) %MON trcstat_ptracer0g_del2       =   0.00000000000000000E+00
(PID.TID 0000.0001) %MON trcstat_ptracer0h_max        =   1.34124141685423300E-04
(PID.TID 0000.0001) %MON trcstat_ptracer0h_min        =   4.37266022651402866E-36
(PID.TID 0000.0001) %MON trcstat_ptracer0h_mean       =   3.09907441483067488E-06
(PID.TID 0000.0001) %MON trcstat_ptracer0h_sd         =   1.64036345070619993E-05
(PID.TID 0000.0001) %MON trcstat_ptracer0h_del2       =   0.00000000000000000E+00
(PID.TID 0000.0001) %MON trcstat_ptracer0i_max        =   3.95630356001464370E-04
(PID.TID 0000.0001) %MON trcstat_ptracer0i_min        =   1.18229018217707101E-27
(PID.TID 0000.0001) %MON trcstat_ptracer0i_mean       =   9.88533351347588593E-06
(PID.TID 0000.0001) %MON trcstat_ptracer0i_sd         =   5.17781157320150947E-05
(PID.TID 0000.0001) %MON trcstat_ptracer0i_del2       =   0.00000000000000000E+00
(PID.TID 0000.0001) %MON trcstat_ptracer0j_max        =   1.22706749165381302E-04
(PID.TID 0000.0001) %MON trcstat_ptracer0j_min        =   3.57863669531159100E-36
(PID.TID 0000.0001) %MON trcstat_ptracer0j_mean       =   2.89422551460032801E-06
(PID.TID 0000.0001) %MON trcstat_ptracer0j_sd         =   1.52939438502609427E-05
(PID.TID 0000.0001) %MON trcstat_ptracer0j_del2       =   0.00000000000000000E+00
(PID.TID 0000.0001) %MON trcstat_ptracer0k_max        =   3.74164152286758308E-04
(PID.TID 0000.0001) %MON trcstat_ptracer0k_min        =   1.08231088843612753E-27
(PID.TID 0000.0001) %MON trcstat_ptracer0k_mean       =   9.35136013484063061E-06
(PID.TID 0000.0001) %MON trcstat_ptracer0k_sd         =   4.89985618555125352E-05
(PID.TID 0000.0001) %MON trcstat_ptracer0k_del2       =   0.00000000000000000E+00
(PID.TID 0000.0001) %MON trcstat_ptracer0l_max        =   3.71562476176979823E-04
(PID.TID 0000.0001) %MON trcstat_ptracer0l_min        =   1.35495874936796807E-27
(PID.TID 0000.0001) %MON trcstat_ptracer0l_mean       =   8.86325348463146618E-06
(PID.TID 0000.0001) %MON trcstat_ptracer0l_sd         =   4.67477698622000226E-05
(PID.TID 0000.0001) %MON trcstat_ptracer0l_del2       =   0.00000000000000000E+00
(PID.TID 0000.0001) %MON trcstat_ptracer0m_max        =   1.74749943889378282E-04
(PID.TID 0000.0001) %MON trcstat_ptracer0m_min        =   6.22382507430812361E-36
(PID.TID 0000.0001) %MON trcstat_ptracer0m_mean       =   4.02530311706515844E-06
(PID.TID 0000.0001) %MON trcstat_ptracer0m_sd         =   2.12847363383326248E-05
(PID.TID 0000.0001) %MON trcstat_ptracer0m_del2       =   0.00000000000000000E+00
(PID.TID 0000.0001) %MON trcstat_ptracer0n_max        =   1.04560270600595657E-04
(PID.TID 0000.0001) %MON trcstat_ptracer0n_min        =   3.07786141021597881E-36
(PID.TID 0000.0001) %MON trcstat_ptracer0n_mean       =   2.49500165793521269E-06
(PID.TID 0000.0001) %MON trcstat_ptracer0n_sd         =   1.31618414510901002E-05
(PID.TID 0000.0001) %MON trcstat_ptracer0n_del2       =   0.00000000000000000E+00
(PID.TID 0000.0001) %MON trcstat_ptracer0o_max        =   1.67767261266928890E-04
(PID.TID 0000.0001) %MON trcstat_ptracer0o_min        =   4.02086579225637403E-36
(PID.TID 0000.0001) %MON trcstat_ptracer0o_mean       =   4.20204065169583496E-06
(PID.TID 0000.0001) %MON trcstat_ptracer0o_sd         =   2.20060149035697849E-05
(PID.TID 0000.0001) %MON trcstat_ptracer0o_del2       =   0.00000000000000000E+00
(PID.TID 0000.0001) %MON trcstat_ptracer0p_max        =   1.92721990903441792E-04
(PID.TID 0000.0001) %MON trcstat_ptracer0p_min        =   5.46902297562526754E-36
(PID.TID 0000.0001) %MON trcstat_ptracer0p_mean       =   4.65785150052867873E-06
(PID.TID 0000.0001) %MON trcstat_ptracer0p_sd         =   2.45454388611176291E-05
(PID.TID 0000.0001) %MON trcstat_ptracer0p_del2       =   0.00000000000000000E+00
(PID.TID 0000.0001) %MON trcstat_ptracer0q_max        =   1.44926347102786103E-04
(PID.TID 0000.0001) %MON trcstat_ptracer0q_min        =   3.55865860981025358E-36
(PID.TID 0000.0001) %MON trcstat_ptracer0q_mean       =   3.60456806731807026E-06
(PID.TID 0000.0001) %MON trcstat_ptracer0q_sd         =   1.88980419105866253E-05
(PID.TID 0000.0001) %MON trcstat_ptracer0q_del2       =   0.00000000000000000E+00
(PID.TID 0000.0001) %MON trcstat_ptracer0r_max        =   1.31831289413036456E-04
(PID.TID 0000.0001) %MON trcstat_ptracer0r_min        =   3.91421020607047496E-36
(PID.TID 0000.0001) %MON trcstat_ptracer0r_mean       =   3.09676596495970138E-06
(PID.TID 0000.0001) %MON trcstat_ptracer0r_sd         =   1.63709440172149077E-05
(PID.TID 0000.0001) %MON trcstat_ptracer0r_del2       =   0.00000000000000000E+00
(PID.TID 0000.0001) %MON trcstat_ptracer0s_max        =   1.20334709383161577E-04
(PID.TID 0000.0001) %MON trcstat_ptracer0s_min        =   3.82596533198882177E-36
(PID.TID 0000.0001) %MON trcstat_ptracer0s_mean       =   2.81573625444345733E-06
(PID.TID 0000.0001) %MON trcstat_ptracer0s_sd         =   1.48762700410737438E-05
(PID.TID 0000.0001) %MON trcstat_ptracer0s_del2       =   0.00000000000000000E+00
(PID.TID 0000.0001) %MON trcstat_ptracer0t_max        =   3.24103505143247175E-04
(PID.TID 0000.0001) %MON trcstat_ptracer0t_min        =   1.06341939543521352E-27
(PID.TID 0000.0001) %MON trcstat_ptracer0t_mean       =   7.94120300512128080E-06
(PID.TID 0000.0001) %MON trcstat_ptracer0t_sd         =   4.17492932827114062E-05
(PID.TID 0000.0001) %MON trcstat_ptracer0t_del2       =   0.00000000000000000E+00
(PID.TID 0000.0001) %MON trcstat_ptracer0u_max        =   1.21277351304388165E-04
(PID.TID 0000.0001) %MON trcstat_ptracer0u_min        =   3.85414198602828481E-36
(PID.TID 0000.0001) %MON trcstat_ptracer0u_mean       =   2.81902033305805266E-06
(PID.TID 0000.0001) %MON trcstat_ptracer0u_sd         =   1.49022780878834675E-05
(PID.TID 0000.0001) %MON trcstat_ptracer0u_del2       =   0.00000000000000000E+00
(PID.TID 0000.0001) %MON trcstat_ptracer0v_max        =   4.21573809549253707E-04
(PID.TID 0000.0001) %MON trcstat_ptracer0v_min        =   1.19621920449374781E-27
(PID.TID 0000.0001) %MON trcstat_ptracer0v_mean       =   1.06195783454120015E-05
(PID.TID 0000.0001) %MON trcstat_ptracer0v_sd         =   5.55011647023929351E-05
(PID.TID 0000.0001) %MON trcstat_ptracer0v_del2       =   0.00000000000000000E+00
(PID.TID 0000.0001) %MON trcstat_ptracer0w_max        =   3.37985438582979244E-04
(PID.TID 0000.0001) %MON trcstat_ptracer0w_min        =   1.09296316095147667E-27
(PID.TID 0000.0001) %MON trcstat_ptracer0w_mean       =   8.29990864965972545E-06
(PID.TID 0000.0001) %MON trcstat_ptracer0w_sd         =   4.36087853782865276E-05
(PID.TID 0000.0001) %MON trcstat_ptracer0w_del2       =   0.00000000000000000E+00
(PID.TID 0000.0001) %MON trcstat_ptracer0x_max        =   3.32489433885591241E-04
(PID.TID 0000.0001) %MON trcstat_ptracer0x_min        =   1.05608261613602990E-27
(PID.TID 0000.0001) %MON trcstat_ptracer0x_mean       =   8.20021847648356895E-06
(PID.TID 0000.0001) %MON trcstat_ptracer0x_sd         =   4.30225724070568824E-05
(PID.TID 0000.0001) %MON trcstat_ptracer0x_del2       =   0.00000000000000000E+00
(PID.TID 0000.0001) %MON trcstat_ptracer0y_max        =   1.30703520499446060E-04
(PID.TID 0000.0001) %MON trcstat_ptracer0y_min        =   3.47641839370639319E-36
(PID.TID 0000.0001) %MON trcstat_ptracer0y_mean       =   3.18483864755635632E-06
(PID.TID 0000.0001) %MON trcstat_ptracer0y_sd         =   1.67823127358217291E-05
(PID.TID 0000.0001) %MON trcstat_ptracer0y_del2       =   0.00000000000000000E+00
(PID.TID 0000.0001) %MON trcstat_ptracer0z_max        =   3.35458215962327569E-04
(PID.TID 0000.0001) %MON trcstat_ptracer0z_min        =   1.15375119653845268E-27
(PID.TID 0000.0001) %MON trcstat_ptracer0z_mean       =   8.17476765125083074E-06
(PID.TID 0000.0001) %MON trcstat_ptracer0z_sd         =   4.30391916408765814E-05
(PID.TID 0000.0001) %MON trcstat_ptracer0z_del2       =   0.00000000000000000E+00
(PID.TID 0000.0001) %MON trcstat_ptracer0A_max        =   1.28537698800552355E-04
(PID.TID 0000.0001) %MON trcstat_ptracer0A_min        =   3.09011392151814899E-36
(PID.TID 0000.0001) %MON trcstat_ptracer0A_mean       =   3.20104468717278025E-06
(PID.TID 0000.0001) %MON trcstat_ptracer0A_sd         =   1.67777762447516896E-05
(PID.TID 0000.0001) %MON trcstat_ptracer0A_del2       =   0.00000000000000000E+00
(PID.TID 0000.0001) %MON trcstat_ptracer0B_max        =   3.55485575118026447E-04
(PID.TID 0000.0001) %MON trcstat_ptracer0B_min        =   1.05970334118970193E-27
(PID.TID 0000.0001) %MON trcstat_ptracer0B_mean       =   8.88877504341670519E-06
(PID.TID 0000.0001) %MON trcstat_ptracer0B_sd         =   4.65529295464986158E-05
(PID.TID 0000.0001) %MON trcstat_ptracer0B_del2       =   0.00000000000000000E+00
(PID.TID 0000.0001) %MON trcstat_ptracer0C_max        =   1.99745183640028131E-04
(PID.TID 0000.0001) %MON trcstat_ptracer0C_min        =   5.37838839811976544E-36
(PID.TID 0000.0001) %MON trcstat_ptracer0C_mean       =   4.88983899126763854E-06
(PID.TID 0000.0001) %MON trcstat_ptracer0C_sd         =   2.57084859479374939E-05
(PID.TID 0000.0001) %MON trcstat_ptracer0C_del2       =   0.00000000000000000E+00
(PID.TID 0000.0001) %MON trcstat_ptracer0D_max        =   1.54889634083975471E-04
(PID.TID 0000.0001) %MON trcstat_ptracer0D_min        =   5.08411481570055515E-36
(PID.TID 0000.0001) %MON trcstat_ptracer0D_mean       =   3.56703559471384766E-06
(PID.TID 0000.0001) %MON trcstat_ptracer0D_sd         =   1.88904341412368055E-05
(PID.TID 0000.0001) %MON trcstat_ptracer0D_del2       =   0.00000000000000000E+00
(PID.TID 0000.0001) %MON trcstat_ptracer0E_max        =   3.57591973508529959E-04
(PID.TID 0000.0001) %MON trcstat_ptracer0E_min        =   1.16656379676883452E-27
(PID.TID 0000.0001) %MON trcstat_ptracer0E_mean       =   8.76903802615274620E-06
(PID.TID 0000.0001) %MON trcstat_ptracer0E_sd         =   4.60915019599767814E-05
(PID.TID 0000.0001) %MON trcstat_ptracer0E_del2       =   0.00000000000000000E+00
(PID.TID 0000.0001) %MON trcstat_ptracer0F_max        =   1.86788349515650296E-04
(PID.TID 0000.0001) %MON trcstat_ptracer0F_min        =   5.30364704868911766E-36
(PID.TID 0000.0001) %MON trcstat_ptracer0F_mean       =   4.51345726030060229E-06
(PID.TID 0000.0001) %MON trcstat_ptracer0F_sd         =   2.37849622682233635E-05
(PID.TID 0000.0001) %MON trcstat_ptracer0F_del2       =   0.00000000000000000E+00
(PID.TID 0000.0001) %MON trcstat_ptracer0G_max        =   4.17503943765478152E-04
(PID.TID 0000.0001) %MON trcstat_ptracer0G_min        =   1.23750859698628055E-27
(PID.TID 0000.0001) %MON trcstat_ptracer0G_mean       =   1.04057887746889102E-05
(PID.TID 0000.0001) %MON trcstat_ptracer0G_sd         =   5.45251616055639297E-05
(PID.TID 0000.0001) %MON trcstat_ptracer0G_del2       =   0.00000000000000000E+00
(PID.TID 0000.0001) %MON trcstat_ptracer0H_max        =   3.11351767651739126E-04
(PID.TID 0000.0001) %MON trcstat_ptracer0H_min        =   9.98770272687918515E-28
(PID.TID 0000.0001) %MON trcstat_ptracer0H_mean       =   7.65507294886423312E-06
(PID.TID 0000.0001) %MON trcstat_ptracer0H_sd         =   4.02134516584104156E-05
(PID.TID 0000.0001) %MON trcstat_ptracer0H_del2       =   0.00000000000000000E+00
(PID.TID 0000.0001) %MON trcstat_ptracer0I_max        =   3.78056902685422491E-04
(PID.TID 0000.0001) %MON trcstat_ptracer0I_min        =   1.03359180891597487E-27
(PID.TID 0000.0001) %MON trcstat_ptracer0I_mean       =   9.54158989780927257E-06
(PID.TID 0000.0001) %MON trcstat_ptracer0I_sd         =   4.98624974580288353E-05
(PID.TID 0000.0001) %MON trcstat_ptracer0I_del2       =   0.00000000000000000E+00
(PID.TID 0000.0001) %MON trcstat_ptracer0J_max        =   1.72030974523869335E-04
(PID.TID 0000.0001) %MON trcstat_ptracer0J_min        =   4.47822040315351849E-36
(PID.TID 0000.0001) %MON trcstat_ptracer0J_mean       =   4.19495790458523395E-06
(PID.TID 0000.0001) %MON trcstat_ptracer0J_sd         =   2.20926451624113770E-05
(PID.TID 0000.0001) %MON trcstat_ptracer0J_del2       =   0.00000000000000000E+00
(PID.TID 0000.0001) %MON trcstat_ptracer0K_max        =   1.36752241559336981E-04
(PID.TID 0000.0001) %MON trcstat_ptracer0K_min        =   4.11886939485203574E-36
(PID.TID 0000.0001) %MON trcstat_ptracer0K_mean       =   3.24114651540814118E-06
(PID.TID 0000.0001) %MON trcstat_ptracer0K_sd         =   1.71072832485328006E-05
(PID.TID 0000.0001) %MON trcstat_ptracer0K_del2       =   0.00000000000000000E+00
(PID.TID 0000.0001) %MON trcstat_ptracer0L_max        =   3.17866844883861043E-04
(PID.TID 0000.0001) %MON trcstat_ptracer0L_min        =   9.21200475973988648E-28
(PID.TID 0000.0001) %MON trcstat_ptracer0L_mean       =   7.96833990551674497E-06
(PID.TID 0000.0001) %MON trcstat_ptracer0L_sd         =   4.17191858036912311E-05
(PID.TID 0000.0001) %MON trcstat_ptracer0L_del2       =   0.00000000000000000E+00
(PID.TID 0000.0001) %MON trcstat_ptracer0M_max        =   3.54231690583423932E-04
(PID.TID 0000.0001) %MON trcstat_ptracer0M_min        =   9.49939933295471568E-28
(PID.TID 0000.0001) %MON trcstat_ptracer0M_mean       =   8.96266460145737703E-06
(PID.TID 0000.0001) %MON trcstat_ptracer0M_sd         =   4.67333310243156258E-05
(PID.TID 0000.0001) %MON trcstat_ptracer0M_del2       =   0.00000000000000000E+00
(PID.TID 0000.0001) %MON trcstat_ptracer0N_max        =   1.50653410929329758E-04
(PID.TID 0000.0001) %MON trcstat_ptracer0N_min        =   5.68086054907705994E-36
(PID.TID 0000.0001) %MON trcstat_ptracer0N_mean       =   3.45780237108505606E-06
(PID.TID 0000.0001) %MON trcstat_ptracer0N_sd         =   1.82829924746338607E-05
(PID.TID 0000.0001) %MON trcstat_ptracer0N_del2       =   0.00000000000000000E+00
(PID.TID 0000.0001) %MON trcstat_ptracer0O_max        =   1.48023605549846895E-04
(PID.TID 0000.0001) %MON trcstat_ptracer0O_min        =   4.23069700410151346E-36
(PID.TID 0000.0001) %MON trcstat_ptracer0O_mean       =   3.53067354791650257E-06
(PID.TID 0000.0001) %MON trcstat_ptracer0O_sd         =   1.86293989326720773E-05
(PID.TID 0000.0001) %MON trcstat_ptracer0O_del2       =   0.00000000000000000E+00
(PID.TID 0000.0001) %MON trcstat_ptracer0P_max        =   2.34353657909790799E-04
(PID.TID 0000.0001) %MON trcstat_ptracer0P_min        =   6.35788650894451351E-36
(PID.TID 0000.0001) %MON trcstat_ptracer0P_mean       =   5.68506065685753574E-06
(PID.TID 0000.0001) %MON trcstat_ptracer0P_sd         =   2.99665306299848954E-05
(PID.TID 0000.0001) %MON trcstat_ptracer0P_del2       =   0.00000000000000000E+00
(PID.TID 0000.0001) %MON trcstat_ptracer0Q_max        =   3.71458616406459858E-04
(PID.TID 0000.0001) %MON trcstat_ptracer0Q_min        =   1.35219012455040941E-27
(PID.TID 0000.0001) %MON trcstat_ptracer0Q_mean       =   8.86563239828972961E-06
(PID.TID 0000.0001) %MON trcstat_ptracer0Q_sd         =   4.67582166656131600E-05
(PID.TID 0000.0001) %MON trcstat_ptracer0Q_del2       =   0.00000000000000000E+00
(PID.TID 0000.0001) %MON trcstat_ptracer0R_max        =   3.37188480638642260E-04
(PID.TID 0000.0001) %MON trcstat_ptracer0R_min        =   1.16642245977186942E-27
(PID.TID 0000.0001) %MON trcstat_ptracer0R_mean       =   8.15686236391167569E-06
(PID.TID 0000.0001) %MON trcstat_ptracer0R_sd         =   4.29334515404098774E-05
(PID.TID 0000.0001) %MON trcstat_ptracer0R_del2       =   0.00000000000000000E+00
(PID.TID 0000.0001) %MON trcstat_ptracer0S_max        =   1.01085771830417110E-04
(PID.TID 0000.0001) %MON trcstat_ptracer0S_min        =   2.93735632939212377E-36
(PID.TID 0000.0001) %MON trcstat_ptracer0S_mean       =   2.42229263430688284E-06
(PID.TID 0000.0001) %MON trcstat_ptracer0S_sd         =   1.27738539369972106E-05
(PID.TID 0000.0001) %MON trcstat_ptracer0S_del2       =   0.00000000000000000E+00
(PID.TID 0000.0001) %MON trcstat_ptracer0T_max        =   3.61758544391891214E-04
(PID.TID 0000.0001) %MON trcstat_ptracer0T_min        =   1.04005992007136515E-27
(PID.TID 0000.0001) %MON trcstat_ptracer0T_mean       =   9.10162649841627901E-06
(PID.TID 0000.0001) %MON trcstat_ptracer0T_sd         =   4.76266345200081380E-05
(PID.TID 0000.0001) %MON trcstat_ptracer0T_del2       =   0.00000000000000000E+00
(PID.TID 0000.0001) %MON trcstat_ptracer0U_max        =   3.50323672040846190E-04
(PID.TID 0000.0001) %MON trcstat_ptracer0U_min        =   1.12709356053872286E-27
(PID.TID 0000.0001) %MON trcstat_ptracer0U_mean       =   8.60945629773877671E-06
(PID.TID 0000.0001) %MON trcstat_ptracer0U_sd         =   4.52296038292845438E-05
(PID.TID 0000.0001) %MON trcstat_ptracer0U_del2       =   0.00000000000000000E+00
(PID.TID 0000.0001) %MON trcstat_ptracer0V_max        =   3.56560261799618132E-04
(PID.TID 0000.0001) %MON trcstat_ptracer0V_min        =   1.24639205418941909E-27
(PID.TID 0000.0001) %MON trcstat_ptracer0V_mean       =   8.61191015554621361E-06
(PID.TID 0000.0001) %MON trcstat_ptracer0V_sd         =   4.53277533847007701E-05
(PID.TID 0000.0001) %MON trcstat_ptracer0V_del2       =   0.00000000000000000E+00
(PID.TID 0000.0001) %MON trcstat_ptracer0W_max        =   4.64160716428251008E-04
(PID.TID 0000.0001) %MON trcstat_ptracer0W_min        =   1.33074182105931838E-27
(PID.TID 0000.0001) %MON trcstat_ptracer0W_mean       =   1.16883732906629516E-05
(PID.TID 0000.0001) %MON trcstat_ptracer0W_sd         =   6.11116634813257254E-05
(PID.TID 0000.0001) %MON trcstat_ptracer0W_del2       =   0.00000000000000000E+00
(PID.TID 0000.0001) %MON trcstat_ptracer0X_max        =   1.79822439379695632E-04
(PID.TID 0000.0001) %MON trcstat_ptracer0X_min        =   4.51071480507817413E-36
(PID.TID 0000.0001) %MON trcstat_ptracer0X_mean       =   4.41757803319519715E-06
(PID.TID 0000.0001) %MON trcstat_ptracer0X_sd         =   2.32317623906905989E-05
(PID.TID 0000.0001) %MON trcstat_ptracer0X_del2       =   0.00000000000000000E+00
(PID.TID 0000.0001) %MON trcstat_ptracer0Y_max        =   3.51349379380102732E-04
(PID.TID 0000.0001) %MON trcstat_ptracer0Y_min        =   1.00068067988800809E-27
(PID.TID 0000.0001) %MON trcstat_ptracer0Y_mean       =   8.84814406351397229E-06
(PID.TID 0000.0001) %MON trcstat_ptracer0Y_sd         =   4.63081823037951790E-05
(PID.TID 0000.0001) %MON trcstat_ptracer0Y_del2       =   0.00000000000000000E+00
(PID.TID 0000.0001) %MON trcstat_ptracer0Z_max        =   3.62200655814715706E-04
(PID.TID 0000.0001) %MON trcstat_ptracer0Z_min        =   1.14908172292910652E-27
(PID.TID 0000.0001) %MON trcstat_ptracer0Z_mean       =   8.90451229572427274E-06
(PID.TID 0000.0001) %MON trcstat_ptracer0Z_sd         =   4.67718945373205564E-05
(PID.TID 0000.0001) %MON trcstat_ptracer0Z_del2       =   0.00000000000000000E+00
(PID.TID 0000.0001) %MON trcstat_ptracer1a_max        =   1.43391513157587288E-04
(PID.TID 0000.0001) %MON trcstat_ptracer1a_min        =   4.05874140646180193E-36
(PID.TID 0000.0001) %MON trcstat_ptracer1a_mean       =   3.46939801515878594E-06
(PID.TID 0000.0001) %MON trcstat_ptracer1a_sd         =   1.82803528567599423E-05
(PID.TID 0000.0001) %MON trcstat_ptracer1a_del2       =   0.00000000000000000E+00
(PID.TID 0000.0001) %MON trcstat_ptracer1b_max        =   3.71368454342689243E-04
(PID.TID 0000.0001) %MON trcstat_ptracer1b_min        =   1.23710586938439325E-27
(PID.TID 0000.0001) %MON trcstat_ptracer1b_mean       =   9.05765192475892394E-06
(PID.TID 0000.0001) %MON trcstat_ptracer1b_sd         =   4.76770149323214971E-05
(PID.TID 0000.0001) %MON trcstat_ptracer1b_del2       =   0.00000000000000000E+00
(PID.TID 0000.0001) %MON trcstat_ptracer1c_max        =   3.05794186350576483E-04
(PID.TID 0000.0001) %MON trcstat_ptracer1c_min        =   9.88704504104154310E-28
(PID.TID 0000.0001) %MON trcstat_ptracer1c_mean       =   7.50072577239790551E-06
(PID.TID 0000.0001) %MON trcstat_ptracer1c_sd         =   3.94174981350479188E-05
(PID.TID 0000.0001) %MON trcstat_ptracer1c_del2       =   0.00000000000000000E+00
(PID.TID 0000.0001) %MON trcstat_ptracer1d_max        =   1.65710980839089592E-04
(PID.TID 0000.0001) %MON trcstat_ptracer1d_min        =   6.63160802362561527E-36
(PID.TID 0000.0001) %MON trcstat_ptracer1d_mean       =   3.79811077433054107E-06
(PID.TID 0000.0001) %MON trcstat_ptracer1d_sd         =   2.00758116170718693E-05
(PID.TID 0000.0001) %MON trcstat_ptracer1d_del2       =   0.00000000000000000E+00
(PID.TID 0000.0001) %MON trcstat_ptracer1e_max        =   1.91107928978120353E-04
(PID.TID 0000.0001) %MON trcstat_ptracer1e_min        =   4.81377742609215873E-36
(PID.TID 0000.0001) %MON trcstat_ptracer1e_mean       =   4.68409183028568895E-06
(PID.TID 0000.0001) %MON trcstat_ptracer1e_sd         =   2.46541017155745361E-05
(PID.TID 0000.0001) %MON trcstat_ptracer1e_del2       =   0.00000000000000000E+00
(PID.TID 0000.0001) %MON trcstat_ptracer1f_max        =   1.15354074565950047E-04
(PID.TID 0000.0001) %MON trcstat_ptracer1f_min        =   3.46860316698530112E-36
(PID.TID 0000.0001) %MON trcstat_ptracer1f_mean       =   2.73525338208234809E-06
(PID.TID 0000.0001) %MON trcstat_ptracer1f_sd         =   1.44365711600317480E-05
(PID.TID 0000.0001) %MON trcstat_ptracer1f_del2       =   0.00000000000000000E+00
(PID.TID 0000.0001) %MON trcstat_ptracer1g_max        =   4.60732941871660573E-04
(PID.TID 0000.0001) %MON trcstat_ptracer1g_min        =   1.35473890597766796E-27
(PID.TID 0000.0001) %MON trcstat_ptracer1g_mean       =   1.15702609662354659E-05
(PID.TID 0000.0001) %MON trcstat_ptracer1g_sd         =   6.05569980664682315E-05
(PID.TID 0000.0001) %MON trcstat_ptracer1g_del2       =   0.00000000000000000E+00
(PID.TID 0000.0001) %MON trcstat_ptracer1h_max        =   3.93961903418760392E-04
(PID.TID 0000.0001) %MON trcstat_ptracer1h_min        =   1.15178840926102861E-27
(PID.TID 0000.0001) %MON trcstat_ptracer1h_mean       =   9.91257534893041541E-06
(PID.TID 0000.0001) %MON trcstat_ptracer1h_sd         =   5.18663253888475135E-05
(PID.TID 0000.0001) %MON trcstat_ptracer1h_del2       =   0.00000000000000000E+00
(PID.TID 0000.0001) %MON trcstat_ptracer1i_max        =   1.60410753177128078E-04
(PID.TID 0000.0001) %MON trcstat_ptracer1i_min        =   3.98475746626657309E-36
(PID.TID 0000.0001) %MON trcstat_ptracer1i_mean       =   3.97969533367008025E-06
(PID.TID 0000.0001) %MON trcstat_ptracer1i_sd         =   2.08685744500620704E-05
(PID.TID 0000.0001) %MON trcstat_ptracer1i_del2       =   0.00000000000000000E+00
(PID.TID 0000.0001) %MON trcstat_ptracer1j_max        =   1.41009747277043079E-04
(PID.TID 0000.0001) %MON trcstat_ptracer1j_min        =   4.07607216635066673E-36
(PID.TID 0000.0001) %MON trcstat_ptracer1j_mean       =   3.38505725956373056E-06
(PID.TID 0000.0001) %MON trcstat_ptracer1j_sd         =   1.78482947031705846E-05
(PID.TID 0000.0001) %MON trcstat_ptracer1j_del2       =   0.00000000000000000E+00
(PID.TID 0000.0001) %MON trcstat_ptracer1k_max        =   1.56085921818468597E-04
(PID.TID 0000.0001) %MON trcstat_ptracer1k_min        =   5.90796790490667341E-36
(PID.TID 0000.0001) %MON trcstat_ptracer1k_mean       =   3.58193424419751589E-06
(PID.TID 0000.0001) %MON trcstat_ptracer1k_sd         =   1.89390904777828581E-05
(PID.TID 0000.0001) %MON trcstat_ptracer1k_del2       =   0.00000000000000000E+00
(PID.TID 0000.0001) %MON trcstat_ptracer1l_max        =   4.50708794180495044E-04
(PID.TID 0000.0001) %MON trcstat_ptracer1l_min        =   1.35479612898185941E-27
(PID.TID 0000.0001) %MON trcstat_ptracer1l_mean       =   1.12425605897775845E-05
(PID.TID 0000.0001) %MON trcstat_ptracer1l_sd         =   5.89029116503372990E-05
(PID.TID 0000.0001) %MON trcstat_ptracer1l_del2       =   0.00000000000000000E+00
(PID.TID 0000.0001) %MON trcstat_ptracer1m_max        =   3.26067381202972163E-04
(PID.TID 0000.0001) %MON trcstat_ptracer1m_min        =   9.90278200442182707E-28
(PID.TID 0000.0001) %MON trcstat_ptracer1m_mean       =   8.12380255393439623E-06
(PID.TID 0000.0001) %MON trcstat_ptracer1m_sd         =   4.25388494330786497E-05
(PID.TID 0000.0001) %MON trcstat_ptracer1m_del2       =   0.00000000000000000E+00
(PID.TID 0000.0001) %MON trcstat_ptracer1n_max        =   3.63831955964879692E-04
(PID.TID 0000.0001) %MON trcstat_ptracer1n_min        =   1.27903898881275260E-27
(PID.TID 0000.0001) %MON trcstat_ptracer1n_mean       =   8.78901492653606956E-06
(PID.TID 0000.0001) %MON trcstat_ptracer1n_sd         =   4.63047947410066699E-05
(PID.TID 0000.0001) %MON trcstat_ptracer1n_del2       =   0.00000000000000000E+00
(PID.TID 0000.0001) %MON trcstat_ptracer1o_max        =   3.58182120341880741E-04
(PID.TID 0000.0001) %MON trcstat_ptracer1o_min        =   1.23931895951311648E-27
(PID.TID 0000.0001) %MON trcstat_ptracer1o_mean       =   8.70656154547359936E-06
(PID.TID 0000.0001) %MON trcstat_ptracer1o_sd         =   4.58488648037585581E-05
(PID.TID 0000.0001) %MON trcstat_ptracer1o_del2       =   0.00000000000000000E+00
(PID.TID 0000.0001) %MON trcstat_ptracer1p_max        =   3.07859244182061786E-04
(PID.TID 0000.0001) %MON trcstat_ptracer1p_min        =   9.33739705727799962E-28
(PID.TID 0000.0001) %MON trcstat_ptracer1p_mean       =   7.64040774982000899E-06
(PID.TID 0000.0001) %MON trcstat_ptracer1p_sd         =   4.00542388216126185E-05
(PID.TID 0000.0001) %MON trcstat_ptracer1p_del2       =   0.00000000000000000E+00
(PID.TID 0000.0001) %MON trcstat_ptracer1q_max        =   1.78220672605035020E-04
(PID.TID 0000.0001) %MON trcstat_ptracer1q_min        =   4.24324320469875829E-36
(PID.TID 0000.0001) %MON trcstat_ptracer1q_mean       =   4.42616719843160044E-06
(PID.TID 0000.0001) %MON trcstat_ptracer1q_sd         =   2.32240825893867827E-05
(PID.TID 0000.0001) %MON trcstat_ptracer1q_del2       =   0.00000000000000000E+00
(PID.TID 0000.0001) %MON trcstat_ptracer1r_max        =   1.61778233761305243E-04
(PID.TID 0000.0001) %MON trcstat_ptracer1r_min        =   4.34537597573724037E-36
(PID.TID 0000.0001) %MON trcstat_ptracer1r_mean       =   3.95613722082012190E-06
(PID.TID 0000.0001) %MON trcstat_ptracer1r_sd         =   2.08116367263059860E-05
(PID.TID 0000.0001) %MON trcstat_ptracer1r_del2       =   0.00000000000000000E+00
(PID.TID 0000.0001) %MON trcstat_ptracer1s_max        =   3.40435047454540883E-04
(PID.TID 0000.0001) %MON trcstat_ptracer1s_min        =   8.81963464905708743E-28
(PID.TID 0000.0001) %MON trcstat_ptracer1s_mean       =   8.65989965492257695E-06
(PID.TID 0000.0001) %MON trcstat_ptracer1s_sd         =   4.50814945742296512E-05
(PID.TID 0000.0001) %MON trcstat_ptracer1s_del2       =   0.00000000000000000E+00
(PID.TID 0000.0001) %MON trcstat_ptracer1t_max        =   1.55163480783473111E-04
(PID.TID 0000.0001) %MON trcstat_ptracer1t_min        =   5.78228228287422593E-36
(PID.TID 0000.0001) %MON trcstat_ptracer1t_mean       =   3.56349404919267095E-06
(PID.TID 0000.0001) %MON trcstat_ptracer1t_sd         =   1.88412680660483270E-05
(PID.TID 0000.0001) %MON trcstat_ptracer1t_del2       =   0.00000000000000000E+00
(PID.TID 0000.0001) %MON trcstat_ptracer1u_max        =   1.97348397823063441E-04
(PID.TID 0000.0001) %MON trcstat_ptracer1u_min        =   6.00401048740056812E-36
(PID.TID 0000.0001) %MON trcstat_ptracer1u_mean       =   4.61268375901336783E-06
(PID.TID 0000.0001) %MON trcstat_ptracer1u_sd         =   2.43950359117888652E-05
(PID.TID 0000.0001) %MON trcstat_ptracer1u_del2       =   0.00000000000000000E+00
(PID.TID 0000.0001) %MON trcstat_ptracer1v_max        =   1.80024544559180040E-04
(PID.TID 0000.0001) %MON trcstat_ptracer1v_min        =   5.98367894425611440E-36
(PID.TID 0000.0001) %MON trcstat_ptracer1v_mean       =   4.18175295373673596E-06
(PID.TID 0000.0001) %MON trcstat_ptracer1v_sd         =   2.20986614873456263E-05
(PID.TID 0000.0001) %MON trcstat_ptracer1v_del2       =   0.00000000000000000E+00
(PID.TID 0000.0001) %MON trcstat_ptracer1w_max        =   2.28945172866237639E-04
(PID.TID 0000.0001) %MON trcstat_ptracer1w_min        =   6.16402581183076379E-36
(PID.TID 0000.0001) %MON trcstat_ptracer1w_mean       =   5.55985311552071878E-06
(PID.TID 0000.0001) %MON trcstat_ptracer1w_sd         =   2.93218405630979425E-05
(PID.TID 0000.0001) %MON trcstat_ptracer1w_del2       =   0.00000000000000000E+00
(PID.TID 0000.0001) %MON trcstat_ptracer1x_max        =   1.49436110086867109E-04
(PID.TID 0000.0001) %MON trcstat_ptracer1x_min        =   4.69392437041564885E-36
(PID.TID 0000.0001) %MON trcstat_ptracer1x_mean       =   3.50551067424521150E-06
(PID.TID 0000.0001) %MON trcstat_ptracer1x_sd         =   1.85171848604057399E-05
(PID.TID 0000.0001) %MON trcstat_ptracer1x_del2       =   0.00000000000000000E+00
(PID.TID 0000.0001) // =======================================================
(PID.TID 0000.0001) // End MONITOR ptracers field statistics
(PID.TID 0000.0001) // =======================================================
 Computing Diagnostic #    140  TRAC01       Counter:       1   Parms: SMR     MR      
 Computing Diagnostic #    152  TRAC02       Counter:       1   Parms: SMR     MR      
 Computing Diagnostic #    164  TRAC03       Counter:       1   Parms: SMR     MR      
 Computing Diagnostic #    176  TRAC04       Counter:       1   Parms: SMR     MR      
 Computing Diagnostic #    188  TRAC05       Counter:       1   Parms: SMR     MR      
 Computing Diagnostic #    200  TRAC06       Counter:       1   Parms: SMR     MR      
 Computing Diagnostic #    212  TRAC07       Counter:       1   Parms: SMR     MR      
 Computing Diagnostic #    224  TRAC08       Counter:       1   Parms: SMR     MR      
 Computing Diagnostic #    236  TRAC09       Counter:       1   Parms: SMR     MR      
 Computing Diagnostic #    248  TRAC10       Counter:       1   Parms: SMR     MR      
 Computing Diagnostic #    260  TRAC11       Counter:       1   Parms: SMR     MR      
 Computing Diagnostic #    272  TRAC12       Counter:       1   Parms: SMR     MR      
 Computing Diagnostic #    284  TRAC13       Counter:       1   Parms: SMR     MR      
 Computing Diagnostic #    296  TRAC14       Counter:       1   Parms: SMR     MR      
 Computing Diagnostic #    308  TRAC15       Counter:       1   Parms: SMR     MR      
 Computing Diagnostic #    320  TRAC16       Counter:       1   Parms: SMR     MR      
 Computing Diagnostic #    332  TRAC17       Counter:       1   Parms: SMR     MR      
 Computing Diagnostic #    344  TRAC18       Counter:       1   Parms: SMR     MR      
 Computing Diagnostic #    356  TRAC19       Counter:       1   Parms: SMR     MR      
 Computing Diagnostic #    368  TRAC20       Counter:       1   Parms: SMR     MR      
 Computing Diagnostic #    380  TRAC21       Counter:       1   Parms: SMR     MR      
 Computing Diagnostic #    392  TRAC22       Counter:       1   Parms: SMR     MR      
 Computing Diagnostic #    404  TRAC23       Counter:       1   Parms: SMR     MR      
 Computing Diagnostic #    416  TRAC24       Counter:       1   Parms: SMR     MR      
 Computing Diagnostic #    428  TRAC25       Counter:       1   Parms: SMR     MR      
 Computing Diagnostic #    440  TRAC26       Counter:       1   Parms: SMR     MR      
 Computing Diagnostic #    452  TRAC27       Counter:       1   Parms: SMR     MR      
 Computing Diagnostic #    464  TRAC28       Counter:       1   Parms: SMR     MR      
 Computing Diagnostic #    476  TRAC29       Counter:       1   Parms: SMR     MR      
 Computing Diagnostic #    488  TRAC30       Counter:       1   Parms: SMR     MR      
 Computing Diagnostic #    500  TRAC31       Counter:       1   Parms: SMR     MR      
 Computing Diagnostic #    512  TRAC32       Counter:       1   Parms: SMR     MR      
 Computing Diagnostic #    524  TRAC33       Counter:       1   Parms: SMR     MR      
 Computing Diagnostic #    536  TRAC34       Counter:       1   Parms: SMR     MR      
 Computing Diagnostic #    548  TRAC35       Counter:       1   Parms: SMR     MR      
 Computing Diagnostic #    560  TRAC36       Counter:       1   Parms: SMR     MR      
 Computing Diagnostic #    572  TRAC37       Counter:       1   Parms: SMR     MR      
 Computing Diagnostic #    584  TRAC38       Counter:       1   Parms: SMR     MR      
 Computing Diagnostic #    596  TRAC39       Counter:       1   Parms: SMR     MR      
 Computing Diagnostic #    608  TRAC40       Counter:       1   Parms: SMR     MR      
 Computing Diagnostic #    620  TRAC41       Counter:       1   Parms: SMR     MR      
 Computing Diagnostic #    632  TRAC42       Counter:       1   Parms: SMR     MR      
 Computing Diagnostic #    644  TRAC43       Counter:       1   Parms: SMR     MR      
 Computing Diagnostic #    656  TRAC44       Counter:       1   Parms: SMR     MR      
 Computing Diagnostic #    668  TRAC45       Counter:       1   Parms: SMR     MR      
 Computing Diagnostic #    680  TRAC46       Counter:       1   Parms: SMR     MR      
 Computing Diagnostic #    692  TRAC47       Counter:       1   Parms: SMR     MR      
 Computing Diagnostic #    704  TRAC48       Counter:       1   Parms: SMR     MR      
 Computing Diagnostic #    716  TRAC49       Counter:       1   Parms: SMR     MR      
 Computing Diagnostic #    728  TRAC50       Counter:       1   Parms: SMR     MR      
 Computing Diagnostic #    740  TRAC51       Counter:       1   Parms: SMR     MR      
 Computing Diagnostic #    752  TRAC52       Counter:       1   Parms: SMR     MR      
 Computing Diagnostic #    764  TRAC53       Counter:       1   Parms: SMR     MR      
 Computing Diagnostic #    776  TRAC54       Counter:       1   Parms: SMR     MR      
 Computing Diagnostic #    788  TRAC55       Counter:       1   Parms: SMR     MR      
 Computing Diagnostic #    800  TRAC56       Counter:       1   Parms: SMR     MR      
 Computing Diagnostic #    812  TRAC57       Counter:       1   Parms: SMR     MR      
 Computing Diagnostic #    824  TRAC58       Counter:       1   Parms: SMR     MR      
 Computing Diagnostic #    836  TRAC59       Counter:       1   Parms: SMR     MR      
 Computing Diagnostic #    848  TRAC60       Counter:       1   Parms: SMR     MR      
 Computing Diagnostic #    860  TRAC61       Counter:       1   Parms: SMR     MR      
 Computing Diagnostic #    872  TRAC62       Counter:       1   Parms: SMR     MR      
 Computing Diagnostic #    884  TRAC63       Counter:       1   Parms: SMR     MR      
 Computing Diagnostic #    896  TRAC64       Counter:       1   Parms: SMR     MR      
 Computing Diagnostic #    908  TRAC65       Counter:       1   Parms: SMR     MR      
 Computing Diagnostic #    920  TRAC66       Counter:       1   Parms: SMR     MR      
 Computing Diagnostic #    932  TRAC67       Counter:       1   Parms: SMR     MR      
 Computing Diagnostic #    944  TRAC68       Counter:       1   Parms: SMR     MR      
 Computing Diagnostic #    956  TRAC69       Counter:       1   Parms: SMR     MR      
 Computing Diagnostic #    968  TRAC70       Counter:       1   Parms: SMR     MR      
 Computing Diagnostic #    980  TRAC71       Counter:       1   Parms: SMR     MR      
 Computing Diagnostic #    992  TRAC72       Counter:       1   Parms: SMR     MR      
 Computing Diagnostic #   1004  TRAC73       Counter:       1   Parms: SMR     MR      
 Computing Diagnostic #   1016  TRAC74       Counter:       1   Parms: SMR     MR      
 Computing Diagnostic #   1028  TRAC75       Counter:       1   Parms: SMR     MR      
 Computing Diagnostic #   1040  TRAC76       Counter:       1   Parms: SMR     MR      
 Computing Diagnostic #   1052  TRAC77       Counter:       1   Parms: SMR     MR      
 Computing Diagnostic #   1064  TRAC78       Counter:       1   Parms: SMR     MR      
 Computing Diagnostic #   1076  TRAC79       Counter:       1   Parms: SMR     MR      
 Computing Diagnostic #   1088  TRAC80       Counter:       1   Parms: SMR     MR      
 Computing Diagnostic #   1100  TRAC81       Counter:       1   Parms: SMR     MR      
 Computing Diagnostic #   1112  TRAC82       Counter:       1   Parms: SMR     MR      
 Computing Diagnostic #   1124  TRAC83       Counter:       1   Parms: SMR     MR      
 Computing Diagnostic #   1136  TRAC84       Counter:       1   Parms: SMR     MR      
 Computing Diagnostic #   1148  TRAC85       Counter:       1   Parms: SMR     MR      
 Computing Diagnostic #   1160  TRAC86       Counter:       1   Parms: SMR     MR      
 Computing Diagnostic #   1172  TRAC87       Counter:       1   Parms: SMR     MR      
 Computing Diagnostic #   1184  TRAC88       Counter:       1   Parms: SMR     MR      
 Computing Diagnostic #   1196  TRAC89       Counter:       1   Parms: SMR     MR      
 Computing Diagnostic #   1208  TRAC90       Counter:       1   Parms: SMR     MR      
 Computing Diagnostic #   1220  TRAC91       Counter:       1   Parms: SMR     MR      
 Computing Diagnostic #   1232  TRAC92       Counter:       1   Parms: SMR     MR      
 Computing Diagnostic #   1244  TRAC93       Counter:       1   Parms: SMR     MR      
 Computing Diagnostic #   1256  TRAC94       Counter:       1   Parms: SMR     MR      
 Computing Diagnostic #   1268  TRAC95       Counter:       1   Parms: SMR     MR      
 Computing Diagnostic #   1280  TRAC96       Counter:       1   Parms: SMR     MR      
 Computing Diagnostic #   1292  TRAC97       Counter:       1   Parms: SMR     MR      
 Computing Diagnostic #   1304  TRAC98       Counter:       1   Parms: SMR     MR      
 Computing Diagnostic #   1316  TRAC99       Counter:       1   Parms: SMR     MR      
 Computing Diagnostic #   1328  TRAC0a       Counter:       1   Parms: SMR     MR      
 Computing Diagnostic #   1340  TRAC0b       Counter:       1   Parms: SMR     MR      
 Computing Diagnostic #   1352  TRAC0c       Counter:       1   Parms: SMR     MR      
 Computing Diagnostic #   1364  TRAC0d       Counter:       1   Parms: SMR     MR      
 Computing Diagnostic #   1376  TRAC0e       Counter:       1   Parms: SMR     MR      
 Computing Diagnostic #   1388  TRAC0f       Counter:       1   Parms: SMR     MR      
 Computing Diagnostic #   1400  TRAC0g       Counter:       1   Parms: SMR     MR      
 Computing Diagnostic #   1412  TRAC0h       Counter:       1   Parms: SMR     MR      
 Computing Diagnostic #   1424  TRAC0i       Counter:       1   Parms: SMR     MR      
 Computing Diagnostic #   1436  TRAC0j       Counter:       1   Parms: SMR     MR      
 Computing Diagnostic #   1448  TRAC0k       Counter:       1   Parms: SMR     MR      
 Computing Diagnostic #   1460  TRAC0l       Counter:       1   Parms: SMR     MR      
 Computing Diagnostic #   1472  TRAC0m       Counter:       1   Parms: SMR     MR      
 Computing Diagnostic #   1484  TRAC0n       Counter:       1   Parms: SMR     MR      
 Computing Diagnostic #   1496  TRAC0o       Counter:       1   Parms: SMR     MR      
 Computing Diagnostic #   1508  TRAC0p       Counter:       1   Parms: SMR     MR      
 Computing Diagnostic #   1520  TRAC0q       Counter:       1   Parms: SMR     MR      
 Computing Diagnostic #   1532  TRAC0r       Counter:       1   Parms: SMR     MR      
 Computing Diagnostic #   1544  TRAC0s       Counter:       1   Parms: SMR     MR      
 Computing Diagnostic #   1556  TRAC0t       Counter:       1   Parms: SMR     MR      
 Computing Diagnostic #   1568  TRAC0u       Counter:       1   Parms: SMR     MR      
 Computing Diagnostic #   1580  TRAC0v       Counter:       1   Parms: SMR     MR      
 Computing Diagnostic #   1592  TRAC0w       Counter:       1   Parms: SMR     MR      
 Computing Diagnostic #   1604  TRAC0x       Counter:       1   Parms: SMR     MR      
 Computing Diagnostic #   1616  TRAC0y       Counter:       1   Parms: SMR     MR      
 Computing Diagnostic #   1628  TRAC0z       Counter:       1   Parms: SMR     MR      
 Computing Diagnostic #   1640  TRAC0A       Counter:       1   Parms: SMR     MR      
 Computing Diagnostic #   1652  TRAC0B       Counter:       1   Parms: SMR     MR      
 Computing Diagnostic #   1664  TRAC0C       Counter:       1   Parms: SMR     MR      
 Computing Diagnostic #   1676  TRAC0D       Counter:       1   Parms: SMR     MR      
 Computing Diagnostic #   1688  TRAC0E       Counter:       1   Parms: SMR     MR      
 Computing Diagnostic #   1700  TRAC0F       Counter:       1   Parms: SMR     MR      
 Computing Diagnostic #   1712  TRAC0G       Counter:       1   Parms: SMR     MR      
 Computing Diagnostic #   1724  TRAC0H       Counter:       1   Parms: SMR     MR      
 Computing Diagnostic #   1736  TRAC0I       Counter:       1   Parms: SMR     MR      
 Computing Diagnostic #   1748  TRAC0J       Counter:       1   Parms: SMR     MR      
 Computing Diagnostic #   1760  TRAC0K       Counter:       1   Parms: SMR     MR      
 Computing Diagnostic #   1772  TRAC0L       Counter:       1   Parms: SMR     MR      
 Computing Diagnostic #   1784  TRAC0M       Counter:       1   Parms: SMR     MR      
 Computing Diagnostic #   1796  TRAC0N       Counter:       1   Parms: SMR     MR      
 Computing Diagnostic #   1808  TRAC0O       Counter:       1   Parms: SMR     MR      
 Computing Diagnostic #   1820  TRAC0P       Counter:       1   Parms: SMR     MR      
 Computing Diagnostic #   1832  TRAC0Q       Counter:       1   Parms: SMR     MR      
 Computing Diagnostic #   1844  TRAC0R       Counter:       1   Parms: SMR     MR      
 Computing Diagnostic #   1856  TRAC0S       Counter:       1   Parms: SMR     MR      
 Computing Diagnostic #   1868  TRAC0T       Counter:       1   Parms: SMR     MR      
 Computing Diagnostic #   1880  TRAC0U       Counter:       1   Parms: SMR     MR      
 Computing Diagnostic #   1892  TRAC0V       Counter:       1   Parms: SMR     MR      
 Computing Diagnostic #   1904  TRAC0W       Counter:       1   Parms: SMR     MR      
 Computing Diagnostic #   1916  TRAC0X       Counter:       1   Parms: SMR     MR      
 Computing Diagnostic #   1928  TRAC0Y       Counter:       1   Parms: SMR     MR      
 Computing Diagnostic #   1940  TRAC0Z       Counter:       1   Parms: SMR     MR      
 Computing Diagnostic #   1952  TRAC1a       Counter:       1   Parms: SMR     MR      
 Computing Diagnostic #   1964  TRAC1b       Counter:       1   Parms: SMR     MR      
 Computing Diagnostic #   1976  TRAC1c       Counter:       1   Parms: SMR     MR      
 Computing Diagnostic #   1988  TRAC1d       Counter:       1   Parms: SMR     MR      
 Computing Diagnostic #   2000  TRAC1e       Counter:       1   Parms: SMR     MR      
 Computing Diagnostic #   2012  TRAC1f       Counter:       1   Parms: SMR     MR      
 Computing Diagnostic #   2024  TRAC1g       Counter:       1   Parms: SMR     MR      
 Computing Diagnostic #   2036  TRAC1h       Counter:       1   Parms: SMR     MR      
 Computing Diagnostic #   2048  TRAC1i       Counter:       1   Parms: SMR     MR      
 Computing Diagnostic #   2060  TRAC1j       Counter:       1   Parms: SMR     MR      
 Computing Diagnostic #   2072  TRAC1k       Counter:       1   Parms: SMR     MR      
 Computing Diagnostic #   2084  TRAC1l       Counter:       1   Parms: SMR     MR      
 Computing Diagnostic #   2096  TRAC1m       Counter:       1   Parms: SMR     MR      
 Computing Diagnostic #   2108  TRAC1n       Counter:       1   Parms: SMR     MR      
 Computing Diagnostic #   2120  TRAC1o       Counter:       1   Parms: SMR     MR      
 Computing Diagnostic #   2132  TRAC1p       Counter:       1   Parms: SMR     MR      
 Computing Diagnostic #   2144  TRAC1q       Counter:       1   Parms: SMR     MR      
 Computing Diagnostic #   2156  TRAC1r       Counter:       1   Parms: SMR     MR      
 Computing Diagnostic #   2168  TRAC1s       Counter:       1   Parms: SMR     MR      
 Computing Diagnostic #   2180  TRAC1t       Counter:       1   Parms: SMR     MR      
 Computing Diagnostic #   2192  TRAC1u       Counter:       1   Parms: SMR     MR      
 Computing Diagnostic #   2204  TRAC1v       Counter:       1   Parms: SMR     MR      
 Computing Diagnostic #   2216  TRAC1w       Counter:       1   Parms: SMR     MR      
 Computing Diagnostic #   2228  TRAC1x       Counter:       1   Parms: SMR     MR      
 Computing Diagnostic #   2245  PAR01        Counter:       2   Parms: SM P    MR      
 Computing Diagnostic #   2252  DIC_c01      Counter:       1   Parms: SM P    MR      
 Computing Diagnostic #   2263  DIC_c02      Counter:       1   Parms: SM P    MR      
 Computing Diagnostic #   2253  c01_DOC      Counter:       1   Parms: SM P    MR      
 Computing Diagnostic #   2264  c02_DOC      Counter:       1   Parms: SM P    MR      
 Computing Diagnostic #   2254  c01_POC      Counter:       1   Parms: SM P    MR      
 Computing Diagnostic #   2265  c02_POC      Counter:       1   Parms: SM P    MR      
 Computing Diagnostic #   2244  PARF         Counter:       1   Parms: SM P    MR      
 Computing Diagnostic #   2241  atten        Counter:       1   Parms: SM P    MR      
 Computing Diagnostic #   2243  surfPAR      Counter:       1   Parms: SM P    MR      
 Computing Diagnostic #   2242  exfPAR       Counter:       1   Parms: SM P    MR      
 Computing Diagnostic #   2246  limn01       Counter:       1   Parms: SM P    MR      
 Computing Diagnostic #   2247  limp01       Counter:       1   Parms: SM P    MR      
 Computing Diagnostic #   2248  limsi01      Counter:       1   Parms: SM P    MR      
 Computing Diagnostic #   2249  limfe01      Counter:       1   Parms: SM P    MR      
 Computing Diagnostic #   2250  limI01       Counter:       1   Parms: SM P    MR      
 Computing Diagnostic #   2251  limT01       Counter:       1   Parms: SM P    MR      
 Computing Diagnostic #   2255  c01_c        Counter:       1   Parms: SM P    MR      
 Computing Diagnostic #   2266  c02_c        Counter:       1   Parms: SM P    MR      
 Computing Diagnostic #   2278  c_c03        Counter:       1   Parms: SM P    MR      
 Computing Diagnostic #   2289  c_c04        Counter:       1   Parms: SM P    MR      
 Computing Diagnostic #   3126  c_DOC        Counter:       1   Parms: SM P    MR      
 Computing Diagnostic #   3127  c_POC        Counter:       1   Parms: SM P    MR      
 Computing Diagnostic #   3128  c_PIC        Counter:       1   Parms: SM P    MR      
 Computing Diagnostic #   3129  n_DON        Counter:       1   Parms: SM P    MR      
 Computing Diagnostic #   3130  n_PON        Counter:       1   Parms: SM P    MR      
 Computing Diagnostic #   3131  p_DOP        Counter:       1   Parms: SM P    MR      
 Computing Diagnostic #   3132  p_POP        Counter:       1   Parms: SM P    MR      
(PID.TID 0000.0001) %CHECKPOINT         4 ckptA
(PID.TID 0000.0001)   Seconds in section "ALL                    [THE_MODEL_MAIN]":
(PID.TID 0000.0001)           User time:   4.5800000000000001
(PID.TID 0000.0001)         System time:  0.20999999999999999
(PID.TID 0000.0001)     Wall clock time:   60.099107980728149
(PID.TID 0000.0001)          No. starts:           1
(PID.TID 0000.0001)           No. stops:           1
(PID.TID 0000.0001)   Seconds in section "INITIALISE_FIXED       [THE_MODEL_MAIN]":
(PID.TID 0000.0001)           User time:  0.79000000000000004
(PID.TID 0000.0001)         System time:   2.0000000000000000E-002
(PID.TID 0000.0001)     Wall clock time:   2.2391488552093506
(PID.TID 0000.0001)          No. starts:           1
(PID.TID 0000.0001)           No. stops:           1
(PID.TID 0000.0001)   Seconds in section "THE_MAIN_LOOP          [THE_MODEL_MAIN]":
(PID.TID 0000.0001)           User time:   3.7900000000000000
(PID.TID 0000.0001)         System time:  0.19000000000000000
(PID.TID 0000.0001)     Wall clock time:   57.859071969985962
(PID.TID 0000.0001)          No. starts:           1
(PID.TID 0000.0001)           No. stops:           1
(PID.TID 0000.0001)   Seconds in section "INITIALISE_VARIA    [THE_MAIN_LOOP]":
(PID.TID 0000.0001)           User time:  0.19999999999999996
(PID.TID 0000.0001)         System time:   3.9999999999999994E-002
(PID.TID 0000.0001)     Wall clock time:   6.2964291572570801
(PID.TID 0000.0001)          No. starts:           1
(PID.TID 0000.0001)           No. stops:           1
(PID.TID 0000.0001)   Seconds in section "MAIN LOOP           [THE_MAIN_LOOP]":
(PID.TID 0000.0001)           User time:   3.5899999999999999
(PID.TID 0000.0001)         System time:  0.14999999999999999
(PID.TID 0000.0001)     Wall clock time:   51.562606811523438
(PID.TID 0000.0001)          No. starts:           1
(PID.TID 0000.0001)           No. stops:           1
(PID.TID 0000.0001)   Seconds in section "FORWARD_STEP        [THE_MAIN_LOOP]":
(PID.TID 0000.0001)           User time:   3.5900000000000003
(PID.TID 0000.0001)         System time:  0.14999999999999999
(PID.TID 0000.0001)     Wall clock time:   51.562545776367188
(PID.TID 0000.0001)          No. starts:           4
(PID.TID 0000.0001)           No. stops:           4
(PID.TID 0000.0001)   Seconds in section "DO_STATEVARS_DIAGS  [FORWARD_STEP]":
(PID.TID 0000.0001)           User time:   1.0000000000000231E-002
(PID.TID 0000.0001)         System time:   0.0000000000000000
(PID.TID 0000.0001)     Wall clock time:   1.8716335296630859E-002
(PID.TID 0000.0001)          No. starts:           8
(PID.TID 0000.0001)           No. stops:           8
(PID.TID 0000.0001)   Seconds in section "LOAD_FIELDS_DRIVER  [FORWARD_STEP]":
(PID.TID 0000.0001)           User time:   2.0000000000000018E-002
(PID.TID 0000.0001)         System time:   0.0000000000000000
(PID.TID 0000.0001)     Wall clock time:   3.7300586700439453E-003
(PID.TID 0000.0001)          No. starts:           4
(PID.TID 0000.0001)           No. stops:           4
(PID.TID 0000.0001)   Seconds in section "EXF_GETFORCING     [LOAD_FLDS_DRIVER]":
(PID.TID 0000.0001)           User time:   1.0000000000000231E-002
(PID.TID 0000.0001)         System time:   0.0000000000000000
(PID.TID 0000.0001)     Wall clock time:   2.8791427612304688E-003
(PID.TID 0000.0001)          No. starts:           4
(PID.TID 0000.0001)           No. stops:           4
(PID.TID 0000.0001)   Seconds in section "EXTERNAL_FLDS_LOAD [LOAD_FLDS_DRIVER]":
(PID.TID 0000.0001)           User time:   0.0000000000000000
(PID.TID 0000.0001)         System time:   0.0000000000000000
(PID.TID 0000.0001)     Wall clock time:   2.6988983154296875E-004
(PID.TID 0000.0001)          No. starts:           4
(PID.TID 0000.0001)           No. stops:           4
(PID.TID 0000.0001)   Seconds in section "DO_ATMOSPHERIC_PHYS [FORWARD_STEP]":
(PID.TID 0000.0001)           User time:   0.0000000000000000
(PID.TID 0000.0001)         System time:   0.0000000000000000
(PID.TID 0000.0001)     Wall clock time:   4.5776367187500000E-005
(PID.TID 0000.0001)          No. starts:           4
(PID.TID 0000.0001)           No. stops:           4
(PID.TID 0000.0001)   Seconds in section "DO_OCEANIC_PHYS     [FORWARD_STEP]":
(PID.TID 0000.0001)           User time:   9.9999999999997868E-003
(PID.TID 0000.0001)         System time:   0.0000000000000000
(PID.TID 0000.0001)     Wall clock time:   1.2540817260742188E-003
(PID.TID 0000.0001)          No. starts:           4
(PID.TID 0000.0001)           No. stops:           4
(PID.TID 0000.0001)   Seconds in section "GCHEM_CALC_TENDENCY [FORWARD_STEP]":
(PID.TID 0000.0001)           User time:   0.0000000000000000
(PID.TID 0000.0001)         System time:   0.0000000000000000
(PID.TID 0000.0001)     Wall clock time:   3.9815902709960938E-005
(PID.TID 0000.0001)          No. starts:           4
(PID.TID 0000.0001)           No. stops:           4
(PID.TID 0000.0001)   Seconds in section "THERMODYNAMICS      [FORWARD_STEP]":
(PID.TID 0000.0001)           User time:  0.39999999999999947
(PID.TID 0000.0001)         System time:   0.0000000000000000
(PID.TID 0000.0001)     Wall clock time:  0.41668391227722168
(PID.TID 0000.0001)          No. starts:           4
(PID.TID 0000.0001)           No. stops:           4
(PID.TID 0000.0001)   Seconds in section "TRC_CORRECTION_STEP [FORWARD_STEP]":
(PID.TID 0000.0001)           User time:   4.0000000000000036E-002
(PID.TID 0000.0001)         System time:   0.0000000000000000
(PID.TID 0000.0001)     Wall clock time:   2.8184890747070313E-002
(PID.TID 0000.0001)          No. starts:           4
(PID.TID 0000.0001)           No. stops:           4
(PID.TID 0000.0001)   Seconds in section "GCHEM_FORCING_SEP  [FORWARD_STEP]":
(PID.TID 0000.0001)           User time:   8.0000000000000071E-002
(PID.TID 0000.0001)         System time:   0.0000000000000000
(PID.TID 0000.0001)     Wall clock time:   9.9184036254882813E-002
(PID.TID 0000.0001)          No. starts:           4
(PID.TID 0000.0001)           No. stops:           4
(PID.TID 0000.0001)   Seconds in section "BLOCKING_EXCHANGES  [FORWARD_STEP]":
(PID.TID 0000.0001)           User time:   2.9999999999999361E-002
(PID.TID 0000.0001)         System time:   0.0000000000000000
(PID.TID 0000.0001)     Wall clock time:   2.2156953811645508E-002
(PID.TID 0000.0001)          No. starts:           4
(PID.TID 0000.0001)           No. stops:           4
(PID.TID 0000.0001)   Seconds in section "DO_STATEVARS_TAVE   [FORWARD_STEP]":
(PID.TID 0000.0001)           User time:   0.0000000000000000
(PID.TID 0000.0001)         System time:   0.0000000000000000
(PID.TID 0000.0001)     Wall clock time:   2.2265911102294922E-003
(PID.TID 0000.0001)          No. starts:           4
(PID.TID 0000.0001)           No. stops:           4
(PID.TID 0000.0001)   Seconds in section "MONITOR             [FORWARD_STEP]":
(PID.TID 0000.0001)           User time:   0.0000000000000000
(PID.TID 0000.0001)         System time:   0.0000000000000000
(PID.TID 0000.0001)     Wall clock time:   4.2681694030761719E-003
(PID.TID 0000.0001)          No. starts:           4
(PID.TID 0000.0001)           No. stops:           4
(PID.TID 0000.0001)   Seconds in section "DO_THE_MODEL_IO     [FORWARD_STEP]":
(PID.TID 0000.0001)           User time:   2.9900000000000011
(PID.TID 0000.0001)         System time:  0.14999999999999999
(PID.TID 0000.0001)     Wall clock time:   50.956385135650635
(PID.TID 0000.0001)          No. starts:           4
(PID.TID 0000.0001)           No. stops:           4
(PID.TID 0000.0001)   Seconds in section "DO_WRITE_PICKUP     [FORWARD_STEP]":
(PID.TID 0000.0001)           User time:   9.9999999999997868E-003
(PID.TID 0000.0001)         System time:   0.0000000000000000
(PID.TID 0000.0001)     Wall clock time:   8.9859962463378906E-003
(PID.TID 0000.0001)          No. starts:           4
(PID.TID 0000.0001)           No. stops:           4
(PID.TID 0000.0001) // ======================================================
(PID.TID 0000.0001) // Tile <-> Tile communication statistics
(PID.TID 0000.0001) // ======================================================
(PID.TID 0000.0001) // o Tile number: 000001
(PID.TID 0000.0001) //         No. X exchanges =              0
(PID.TID 0000.0001) //            Max. X spins =              0
(PID.TID 0000.0001) //            Min. X spins =     1000000000
(PID.TID 0000.0001) //          Total. X spins =              0
(PID.TID 0000.0001) //            Avg. X spins =       0.00E+00
(PID.TID 0000.0001) //         No. Y exchanges =              0
(PID.TID 0000.0001) //            Max. Y spins =              0
(PID.TID 0000.0001) //            Min. Y spins =     1000000000
(PID.TID 0000.0001) //          Total. Y spins =              0
(PID.TID 0000.0001) //            Avg. Y spins =       0.00E+00
(PID.TID 0000.0001) // o Thread number: 000001
(PID.TID 0000.0001) //            No. barriers =          31602
(PID.TID 0000.0001) //      Max. barrier spins =              1
(PID.TID 0000.0001) //      Min. barrier spins =              1
(PID.TID 0000.0001) //     Total barrier spins =          31602
(PID.TID 0000.0001) //      Avg. barrier spins =       1.00E+00
PROGRAM MAIN: Execution ended Normally
