(PID.TID 0000.0001) 
(PID.TID 0000.0001) // ======================================================
(PID.TID 0000.0001) //                      MITgcm UV
(PID.TID 0000.0001) //                      =========
(PID.TID 0000.0001) // ======================================================
(PID.TID 0000.0001) // execution environment starting up...
(PID.TID 0000.0001) 
(PID.TID 0000.0001) // Build user:        jahn
(PID.TID 0000.0001) // Build host:        node206
(PID.TID 0000.0001) // Build date:        Thu May  1 21:35:12 EDT 2014
(PID.TID 0000.0001) 
(PID.TID 0000.0001) // =======================================================
(PID.TID 0000.0001) // Execution Environment parameter file "eedata"
(PID.TID 0000.0001) // =======================================================
(PID.TID 0000.0001) ># Example "eedata" file
(PID.TID 0000.0001) ># Lines beginning "#" are comments
(PID.TID 0000.0001) ># nTx - No. threads per process in X
(PID.TID 0000.0001) ># nTy - No. threads per process in Y
(PID.TID 0000.0001) > &EEPARMS
(PID.TID 0000.0001) > nTx=1,nTy=1
(PID.TID 0000.0001) > /
(PID.TID 0000.0001) ># Note: Some systems use & as the
(PID.TID 0000.0001) ># namelist terminator. Other systems
(PID.TID 0000.0001) ># use a / character (as shown here).
(PID.TID 0000.0001) 
(PID.TID 0000.0001) // =======================================================
(PID.TID 0000.0001) // Computational Grid Specification ( see files "SIZE.h" )
(PID.TID 0000.0001) //                                  ( and "eedata"       )
(PID.TID 0000.0001) // =======================================================
(PID.TID 0000.0001)      nPx =    1 ; /* No. processes in X */
(PID.TID 0000.0001)      nPy =    1 ; /* No. processes in Y */
(PID.TID 0000.0001)      nSx =    1 ; /* No. tiles in X per process */
(PID.TID 0000.0001)      nSy =    1 ; /* No. tiles in Y per process */
(PID.TID 0000.0001)      sNx =    1 ; /* Tile size in X */
(PID.TID 0000.0001)      sNy =    1 ; /* Tile size in Y */
(PID.TID 0000.0001)      OLx =    2 ; /* Tile overlap distance in X */
(PID.TID 0000.0001)      OLy =    2 ; /* Tile overlap distance in Y */
(PID.TID 0000.0001)      nTx =    1 ; /* No. threads in X per process */
(PID.TID 0000.0001)      nTy =    1 ; /* No. threads in Y per process */
(PID.TID 0000.0001)       Nr =   35 ; /* No. levels in the vertical   */
(PID.TID 0000.0001)       Nx =    1 ; /* Total domain size in X ( = nPx*nSx*sNx ) */
(PID.TID 0000.0001)       Ny =    1 ; /* Total domain size in Y ( = nPy*nSy*sNy ) */
(PID.TID 0000.0001)   nTiles =    1 ; /* Total no. tiles per process ( = nSx*nSy ) */
(PID.TID 0000.0001)   nProcs =    1 ; /* Total no. processes ( = nPx*nPy ) */
(PID.TID 0000.0001) nThreads =    1 ; /* Total no. threads per process ( = nTx*nTy ) */
(PID.TID 0000.0001) usingMPI =    F ; /* Flag used to control whether MPI is in use */
(PID.TID 0000.0001)                   /*  note: To execute a program with MPI calls */
(PID.TID 0000.0001)                   /*  it must be launched appropriately e.g     */
(PID.TID 0000.0001)                   /*  "mpirun -np 64 ......"                    */
(PID.TID 0000.0001) useCoupler=    F ;/* Flag used to control communications with   */
(PID.TID 0000.0001)                   /*  other model components, through a coupler */
(PID.TID 0000.0001) debugMode =    F ; /* print debug msg. (sequence of S/R calls)  */
(PID.TID 0000.0001) printMapIncludesZeros=    F ; /* print zeros in Std.Output maps */
(PID.TID 0000.0001) maxLengthPrt1D=   65 /* maxLength of 1D array printed to StdOut */
(PID.TID 0000.0001) 
(PID.TID 0000.0001) // ======================================================
(PID.TID 0000.0001) // Mapping of tiles to threads
(PID.TID 0000.0001) // ======================================================
(PID.TID 0000.0001) // -o- Thread   1, tiles (   1:   1,   1:   1)
(PID.TID 0000.0001) 
(PID.TID 0000.0001) // ======================================================
(PID.TID 0000.0001) // Tile <-> Tile connectvity table
(PID.TID 0000.0001) // ======================================================
(PID.TID 0000.0001) // Tile number: 000001 (process no. = 000000)
(PID.TID 0000.0001) //        WEST: Tile = 000001, Process = 000000, Comm = put
(PID.TID 0000.0001) //                bi = 000001, bj = 000001
(PID.TID 0000.0001) //        EAST: Tile = 000001, Process = 000000, Comm = put
(PID.TID 0000.0001) //                bi = 000001, bj = 000001
(PID.TID 0000.0001) //       SOUTH: Tile = 000001, Process = 000000, Comm = put
(PID.TID 0000.0001) //                bi = 000001, bj = 000001
(PID.TID 0000.0001) //       NORTH: Tile = 000001, Process = 000000, Comm = put
(PID.TID 0000.0001) //                bi = 000001, bj = 000001
(PID.TID 0000.0001) 
(PID.TID 0000.0001)  INI_PARMS: opening model parameter file "data"
(PID.TID 0000.0001)  OPEN_COPY_DATA_FILE: opening file data
(PID.TID 0000.0001) // =======================================================
(PID.TID 0000.0001) // Parameter file "data"
(PID.TID 0000.0001) // =======================================================
(PID.TID 0000.0001) >#
(PID.TID 0000.0001) ># ******************************
(PID.TID 0000.0001) ># Model parameters
(PID.TID 0000.0001) ># Continuous equation parameters
(PID.TID 0000.0001) ># ******************************
(PID.TID 0000.0001) >&PARM01
(PID.TID 0000.0001) >tRef= 26.5, 26.1, 26., 25.5, 25.4, 24.9, 24.5, 24.0, 23.7,
(PID.TID 0000.0001) >      23.3, 23.1, 22.8, 22.5, 22.1, 21.6, 20.6, 19.5, 18.4,
(PID.TID 0000.0001) >      17.3, 16.6, 15.5, 14.6, 13.8, 13.1, 11.6, 10.1, 7.7,
(PID.TID 0000.0001) >      5.3, 4.1, 3.7, 3.7, 3.4, 3.0, 2.8, 2.6,
(PID.TID 0000.0001) >sRef= 35*35.00,
(PID.TID 0000.0001) >no_slip_sides=.false.,
(PID.TID 0000.0001) >no_slip_bottom=.TRUE.,
(PID.TID 0000.0001) >viscAz=0.e0,
(PID.TID 0000.0001) >viscAh=0.e0,
(PID.TID 0000.0001) >diffKhT=1.E2,
(PID.TID 0000.0001) >diffKzT=1.E-4,
(PID.TID 0000.0001) >diffKhS=0.D0,
(PID.TID 0000.0001) >diffKzS=0.D0,
(PID.TID 0000.0001) >beta=1.E-11,
(PID.TID 0000.0001) >tAlpha=2.E-4,
(PID.TID 0000.0001) >sBeta =7.4E-4,
(PID.TID 0000.0001) >gravity=9.81,
(PID.TID 0000.0001) >gBaro=9.81,
(PID.TID 0000.0001) >rigidLid=.TRUE.,
(PID.TID 0000.0001) >implicitFreeSurface=.false.,
(PID.TID 0000.0001) >eosType='JMD95Z',
(PID.TID 0000.0001) >saltStepping=.FALSE.,
(PID.TID 0000.0001) >tempStepping=.TRUE.,
(PID.TID 0000.0001) >tempAdvection=.TRUE.,
(PID.TID 0000.0001) >momStepping=.FALSE.,
(PID.TID 0000.0001) >implicitDiffusion=.true.,
(PID.TID 0000.0001) >implicitViscosity=.true.,
(PID.TID 0000.0001) >allowFreezing=.false.,
(PID.TID 0000.0001) >useSingleCpuIO=.TRUE.,
(PID.TID 0000.0001) >useCDscheme=.FALSE.,
(PID.TID 0000.0001) >tempAdvScheme = 3,
(PID.TID 0000.0001) >saltAdvScheme = 3,
(PID.TID 0000.0001) >writeBinaryPrec= 64,
(PID.TID 0000.0001) >/
(PID.TID 0000.0001) >
(PID.TID 0000.0001) ># **************************
(PID.TID 0000.0001) ># Elliptic solver parameters
(PID.TID 0000.0001) ># **************************
(PID.TID 0000.0001) >&PARM02
(PID.TID 0000.0001) >cg2dMaxIters=300,
(PID.TID 0000.0001) >cg2dTargetResidual=1.E-7,
(PID.TID 0000.0001) >/
(PID.TID 0000.0001) >
(PID.TID 0000.0001) ># ************************
(PID.TID 0000.0001) ># Time stepping parameters
(PID.TID 0000.0001) ># ************************
(PID.TID 0000.0001) >&PARM03
(PID.TID 0000.0001) > nIter0=0,
(PID.TID 0000.0001) >#nTimeSteps=86400,
(PID.TID 0000.0001) > nTimeSteps=4,
(PID.TID 0000.0001) > deltaTmom= 3600.,
(PID.TID 0000.0001) > deltaTtracer= 3600.,
(PID.TID 0000.0001) > deltaTClock = 3600.,
(PID.TID 0000.0001) > cAdjFreq    = 0.,
(PID.TID 0000.0001) > abEps=0.1,
(PID.TID 0000.0001) > pChkptFreq  = 31104000.0,
(PID.TID 0000.0001) > chkptFreq   = 31104000.0,
(PID.TID 0000.0001) > dumpFreq = 3600.,
(PID.TID 0000.0001) > dumpInitAndLast = .TRUE.,
(PID.TID 0000.0001) > taveFreq    = 2592000.,
(PID.TID 0000.0001) >#monitorFreq = 2592000.,
(PID.TID 0000.0001) > monitorFreq = 1.,
(PID.TID 0000.0001) > tauThetaClimRelax=86400.,
(PID.TID 0000.0001) > tauSaltClimRelax=0.,
(PID.TID 0000.0001) > periodicExternalForcing=.TRUE.,
(PID.TID 0000.0001) > externForcingPeriod=2592000.,
(PID.TID 0000.0001) > externForcingCycle=31104000.,
(PID.TID 0000.0001) >/
(PID.TID 0000.0001) >
(PID.TID 0000.0001) ># *******************
(PID.TID 0000.0001) ># Gridding parameters
(PID.TID 0000.0001) ># *******************
(PID.TID 0000.0001) >&PARM04
(PID.TID 0000.0001) >usingCartesianGrid=.FALSE.,
(PID.TID 0000.0001) >usingSphericalPolarGrid=.TRUE.,
(PID.TID 0000.0001) >delX=1*1.E0,
(PID.TID 0000.0001) >delY=1*1.E0,
(PID.TID 0000.0001) >delZ=14*10, 5*15, 4*20, 2*50, 100, 2*150, 200, 300, 3*400, 2*500,
(PID.TID 0000.0001) >xgOrigin=0,
(PID.TID 0000.0001) >ygOrigin=-45.,
(PID.TID 0000.0001) >/
(PID.TID 0000.0001) >
(PID.TID 0000.0001) ># **********
(PID.TID 0000.0001) ># Data Files
(PID.TID 0000.0001) ># **********
(PID.TID 0000.0001) >&PARM05
(PID.TID 0000.0001) >bathyFile=       '../input/input/bathyneg.bin',
(PID.TID 0000.0001) >hydrogThetaFile= '../input/input/loc1_temp_janprof.bin',
(PID.TID 0000.0001) >hydrogSaltFile=  '../input/input/salt_uniform.bin',
(PID.TID 0000.0001) >zonalWindFile=   '../input/input/loc1_taux_monsurf.bin',
(PID.TID 0000.0001) >meridWindFile=   '../input/input/loc1_tauy_monsurf.bin',
(PID.TID 0000.0001) >thetaClimFile=   '../input/input/loc1_temp_monsurf.bin',
(PID.TID 0000.0001) >saltClimFile=    '',
(PID.TID 0000.0001) >surfQFile=       '',
(PID.TID 0000.0001) >EmPmRFile=       '',
(PID.TID 0000.0001) >/
(PID.TID 0000.0001) 
(PID.TID 0000.0001)  INI_PARMS ; starts to read PARM01
(PID.TID 0000.0001)  INI_PARMS ; read PARM01 : OK
(PID.TID 0000.0001)  INI_PARMS ; starts to read PARM02
(PID.TID 0000.0001)  INI_PARMS ; read PARM02 : OK
(PID.TID 0000.0001)  INI_PARMS ; starts to read PARM03
(PID.TID 0000.0001)  INI_PARMS ; read PARM03 : OK
(PID.TID 0000.0001)  INI_PARMS ; starts to read PARM04
(PID.TID 0000.0001)  INI_PARMS ; read PARM04 : OK
(PID.TID 0000.0001)  INI_PARMS ; starts to read PARM05
(PID.TID 0000.0001)  INI_PARMS ; read PARM05 : OK
(PID.TID 0000.0001)  INI_PARMS: finished reading file "data"
(PID.TID 0000.0001)  PACKAGES_BOOT: opening data.pkg
(PID.TID 0000.0001)  OPEN_COPY_DATA_FILE: opening file data.pkg
(PID.TID 0000.0001) // =======================================================
(PID.TID 0000.0001) // Parameter file "data.pkg"
(PID.TID 0000.0001) // =======================================================
(PID.TID 0000.0001) ># Packages
(PID.TID 0000.0001) > &PACKAGES
(PID.TID 0000.0001) > usePTRACERS=.TRUE.
(PID.TID 0000.0001) > useGCHEM=.TRUE.,
(PID.TID 0000.0001) > useKPP=.TRUE.,
(PID.TID 0000.0001) > useMNC=.TRUE.,
(PID.TID 0000.0001) > useEXF=.TRUE.,
(PID.TID 0000.0001) > useCAL=.TRUE.,
(PID.TID 0000.0001) > useDIAGNOSTICS=.TRUE.,
(PID.TID 0000.0001) > /
(PID.TID 0000.0001) 
(PID.TID 0000.0001)  PACKAGES_BOOT: finished reading data.pkg
(PID.TID 0000.0001)  MNC_READPARMS: opening file 'data.mnc'
(PID.TID 0000.0001)  OPEN_COPY_DATA_FILE: opening file data.mnc
(PID.TID 0000.0001) // =======================================================
(PID.TID 0000.0001) // Parameter file "data.mnc"
(PID.TID 0000.0001) // =======================================================
(PID.TID 0000.0001) ># Example "data.mnc" file
(PID.TID 0000.0001) ># Lines beginning "#" are comments
(PID.TID 0000.0001) > &MNC_01
(PID.TID 0000.0001) ># mnc_echo_gvtypes=.FALSE.,
(PID.TID 0000.0001) ># mnc_use_indir=.FALSE.,
(PID.TID 0000.0001) > mnc_use_outdir=.TRUE.,
(PID.TID 0000.0001) > mnc_outdir_str='dar1d_',
(PID.TID 0000.0001) > mnc_outdir_date=.TRUE.,
(PID.TID 0000.0001) > monitor_mnc=.FALSE.,
(PID.TID 0000.0001) > snapshot_mnc=.TRUE.,
(PID.TID 0000.0001) > timeave_mnc=.TRUE.,
(PID.TID 0000.0001) > pickup_read_mnc=.FALSE.,
(PID.TID 0000.0001) > pickup_write_mnc=.FALSE.,
(PID.TID 0000.0001) > /
(PID.TID 0000.0001) ># Note: Some systems use & as the
(PID.TID 0000.0001) ># namelist terminator. Other systems
(PID.TID 0000.0001) ># use a / character.
(PID.TID 0000.0001) 
(PID.TID 0000.0001)  MNC_READPARMS: finished reading data.mnc
(PID.TID 0000.0001) CAL_READPARMS: opening data.cal
(PID.TID 0000.0001)  OPEN_COPY_DATA_FILE: opening file data.cal
(PID.TID 0000.0001) // =======================================================
(PID.TID 0000.0001) // Parameter file "data.cal"
(PID.TID 0000.0001) // =======================================================
(PID.TID 0000.0001) >#
(PID.TID 0000.0001) ># *******************
(PID.TID 0000.0001) ># Calendar Parameters
(PID.TID 0000.0001) ># *******************
(PID.TID 0000.0001) > &CAL_NML
(PID.TID 0000.0001) > TheCalendar='model',
(PID.TID 0000.0001) > startDate_1=19920101,
(PID.TID 0000.0001) > startDate_2=000000,
(PID.TID 0000.0001) > calendarDumps = .TRUE.
(PID.TID 0000.0001) > /
(PID.TID 0000.0001) 
(PID.TID 0000.0001) CAL_READPARMS: finished reading data.cal
(PID.TID 0000.0001) EXF_READPARMS: opening data.exf
(PID.TID 0000.0001)  OPEN_COPY_DATA_FILE: opening file data.exf
(PID.TID 0000.0001) // =======================================================
(PID.TID 0000.0001) // Parameter file "data.exf"
(PID.TID 0000.0001) // =======================================================
(PID.TID 0000.0001) ># *********************
(PID.TID 0000.0001) ># External Forcing Data
(PID.TID 0000.0001) ># *********************
(PID.TID 0000.0001) >#
(PID.TID 0000.0001) > &EXF_NML_01
(PID.TID 0000.0001) > exf_albedo        = 0.15,
(PID.TID 0000.0001) > exf_iprec         = 32,
(PID.TID 0000.0001) > exf_yftype        = 'RL',
(PID.TID 0000.0001) > useExfYearlyFields= .TRUE.,
(PID.TID 0000.0001) > twoDigitYear      = .TRUE.,
(PID.TID 0000.0001) > useExfCheckRange  = .FALSE.,
(PID.TID 0000.0001) > /
(PID.TID 0000.0001) >#
(PID.TID 0000.0001) > &EXF_NML_02
(PID.TID 0000.0001) > /
(PID.TID 0000.0001) >#
(PID.TID 0000.0001) > &EXF_NML_03
(PID.TID 0000.0001) > /
(PID.TID 0000.0001) >#
(PID.TID 0000.0001) > &EXF_NML_04
(PID.TID 0000.0001) > /
(PID.TID 0000.0001) >#
(PID.TID 0000.0001) > &EXF_NML_OBCS
(PID.TID 0000.0001) > /
(PID.TID 0000.0001) 
(PID.TID 0000.0001) EXF_READPARMS: reading EXF_NML_01
(PID.TID 0000.0001) EXF_READPARMS: reading EXF_NML_02
(PID.TID 0000.0001) EXF_READPARMS: reading EXF_NML_03
(PID.TID 0000.0001) EXF_READPARMS: finished reading data.exf
(PID.TID 0000.0001)  KPP_INIT: opening data.kpp
(PID.TID 0000.0001)  OPEN_COPY_DATA_FILE: opening file data.kpp
(PID.TID 0000.0001) // =======================================================
(PID.TID 0000.0001) // Parameter file "data.kpp"
(PID.TID 0000.0001) // =======================================================
(PID.TID 0000.0001) >#
(PID.TID 0000.0001) ># ***************
(PID.TID 0000.0001) ># Open boundaries
(PID.TID 0000.0001) ># ***************
(PID.TID 0000.0001) > &KPP_PARM01
(PID.TID 0000.0001) > KPPmixingMaps   = .FALSE.,
(PID.TID 0000.0001) > KPPwriteState   = .TRUE.,
(PID.TID 0000.0001) > kpp_dumpFreq    = 2592000.
(PID.TID 0000.0001) > kpp_tavefreq    = 2592000.
(PID.TID 0000.0001) > Ricr            = 0.3559
(PID.TID 0000.0001) > Riinfty         = 0.6998
(PID.TID 0000.0001) > /
(PID.TID 0000.0001) >
(PID.TID 0000.0001) 
(PID.TID 0000.0001)  KPP_INIT: finished reading data.kpp
(PID.TID 0000.0001)  PTRACERS_READPARMS: opening data.ptracers
(PID.TID 0000.0001)  OPEN_COPY_DATA_FILE: opening file data.ptracers
(PID.TID 0000.0001) // =======================================================
(PID.TID 0000.0001) // Parameter file "data.ptracers"
(PID.TID 0000.0001) // =======================================================
(PID.TID 0000.0001) > &PTRACERS_PARM01
(PID.TID 0000.0001) > PTRACERS_numInUse=33,
(PID.TID 0000.0001) > PTRACERS_Iter0= 0,
(PID.TID 0000.0001) >#
(PID.TID 0000.0001) > PTRACERS_advScheme=33*33,
(PID.TID 0000.0001) > PTRACERS_diffKh=33*0.E3,
(PID.TID 0000.0001) > PTRACERS_diffKr=33*1.E-5,
(PID.TID 0000.0001) > PTRACERS_useGMRedi=33*.FALSE.,
(PID.TID 0000.0001) > PTRACERS_useKPP=33*.TRUE.,
(PID.TID 0000.0001) >#
(PID.TID 0000.0001) > PTRACERS_names(1)= 'DIC',
(PID.TID 0000.0001) > PTRACERS_names(2)= 'NH4',
(PID.TID 0000.0001) > PTRACERS_names(3)= 'NO2',
(PID.TID 0000.0001) > PTRACERS_names(4)= 'NO3',
(PID.TID 0000.0001) > PTRACERS_names(5)= 'PO4',
(PID.TID 0000.0001) > PTRACERS_names(6)= 'SiO2',
(PID.TID 0000.0001) > PTRACERS_names(7)= 'FeT',
(PID.TID 0000.0001) > PTRACERS_names(8)= 'DOC',
(PID.TID 0000.0001) > PTRACERS_names(9)= 'DON',
(PID.TID 0000.0001) > PTRACERS_names(10)= 'DOP',
(PID.TID 0000.0001) > PTRACERS_names(11)= 'DOFe',
(PID.TID 0000.0001) > PTRACERS_names(12)= 'POC',
(PID.TID 0000.0001) > PTRACERS_names(13)= 'PON',
(PID.TID 0000.0001) > PTRACERS_names(14)= 'POP',
(PID.TID 0000.0001) > PTRACERS_names(15)= 'POSi',
(PID.TID 0000.0001) > PTRACERS_names(16)= 'POFe',
(PID.TID 0000.0001) > PTRACERS_names(17)= 'PIC',
(PID.TID 0000.0001) > PTRACERS_names(18)= 'ALK',
(PID.TID 0000.0001) > PTRACERS_names(19)= 'O2',
(PID.TID 0000.0001) > PTRACERS_names(20)= 'c1',
(PID.TID 0000.0001) > PTRACERS_names(21)= 'c2',
(PID.TID 0000.0001) > PTRACERS_names(22)= 'c3',
(PID.TID 0000.0001) > PTRACERS_names(23)= 'c4',
(PID.TID 0000.0001) > PTRACERS_names(24)= 'c5',
(PID.TID 0000.0001) > PTRACERS_names(25)= 'c6',
(PID.TID 0000.0001) > PTRACERS_names(26)= 'c7',
(PID.TID 0000.0001) > PTRACERS_names(27)= 'c8',
(PID.TID 0000.0001) > PTRACERS_names(28)= 'Chl1',
(PID.TID 0000.0001) > PTRACERS_names(29)= 'Chl2',
(PID.TID 0000.0001) > PTRACERS_names(30)= 'Chl3',
(PID.TID 0000.0001) > PTRACERS_names(31)= 'Chl4',
(PID.TID 0000.0001) > PTRACERS_names(32)= 'Chl5',
(PID.TID 0000.0001) > PTRACERS_names(33)= 'Chl6',
(PID.TID 0000.0001) > PTRACERS_units(1)='mmol C/m^3',
(PID.TID 0000.0001) > PTRACERS_units(2)='mmol N/m^3',
(PID.TID 0000.0001) > PTRACERS_units(3)='mmol N/m^3',
(PID.TID 0000.0001) > PTRACERS_units(4)='mmol N/m^3',
(PID.TID 0000.0001) > PTRACERS_units(5)='mmol P/m^3',
(PID.TID 0000.0001) > PTRACERS_units(6)='mmol Si/m^3',
(PID.TID 0000.0001) > PTRACERS_units(7)='mmol Fe/m^3',
(PID.TID 0000.0001) > PTRACERS_units(8)='mmol C/m^3',
(PID.TID 0000.0001) > PTRACERS_units(9)='mmol N/m^3',
(PID.TID 0000.0001) > PTRACERS_units(10)='mmol P/m^3',
(PID.TID 0000.0001) > PTRACERS_units(11)='mmol Fe/m^3',
(PID.TID 0000.0001) > PTRACERS_units(12)='mmol C/m^3',
(PID.TID 0000.0001) > PTRACERS_units(13)='mmol N/m^3',
(PID.TID 0000.0001) > PTRACERS_units(14)='mmol P/m^3',
(PID.TID 0000.0001) > PTRACERS_units(15)='mmol Si/m^3',
(PID.TID 0000.0001) > PTRACERS_units(16)='mmol Fe/m^3',
(PID.TID 0000.0001) > PTRACERS_units(17)='mmol C/m^3',
(PID.TID 0000.0001) > PTRACERS_units(18)='mmol eq/m^3',
(PID.TID 0000.0001) > PTRACERS_units(19)='mmol O/m^3',
(PID.TID 0000.0001) > PTRACERS_units(20)='mmol C/m^3',
(PID.TID 0000.0001) > PTRACERS_units(21)='mmol C/m^3',
(PID.TID 0000.0001) > PTRACERS_units(22)='mmol C/m^3',
(PID.TID 0000.0001) > PTRACERS_units(23)='mmol C/m^3',
(PID.TID 0000.0001) > PTRACERS_units(24)='mmol C/m^3',
(PID.TID 0000.0001) > PTRACERS_units(25)='mmol C/m^3',
(PID.TID 0000.0001) > PTRACERS_units(26)='mmol C/m^3',
(PID.TID 0000.0001) > PTRACERS_units(27)='mmol C/m^3',
(PID.TID 0000.0001) > PTRACERS_units(28)='mg/m^3',
(PID.TID 0000.0001) > PTRACERS_units(29)='mg/m^3',
(PID.TID 0000.0001) > PTRACERS_units(30)='mg/m^3',
(PID.TID 0000.0001) > PTRACERS_units(31)='mg/m^3',
(PID.TID 0000.0001) > PTRACERS_units(32)='mg/m^3',
(PID.TID 0000.0001) > PTRACERS_units(33)='mg/m^3',
(PID.TID 0000.0001) > PTRACERS_initialFile(1)= '../input/input/loc1_glodap_tco2_ann-3d.bin',
(PID.TID 0000.0001) > PTRACERS_initialFile(2)= '../input/input/loc1_nh4_y2000.data',
(PID.TID 0000.0001) > PTRACERS_initialFile(3)= '../input/input/loc1_no2_y2000.data',
(PID.TID 0000.0001) > PTRACERS_initialFile(4)= '../input/input/loc1_lev01_nitrate_ann-3d.bin',
(PID.TID 0000.0001) > PTRACERS_initialFile(5)= '../input/input/loc1_lev01_phosphate_ann-3d.bin',
(PID.TID 0000.0001) > PTRACERS_initialFile(6)= '../input/input/loc1_lev01_silicate_ann-3d.bin ',
(PID.TID 0000.0001) > PTRACERS_initialFile(7)= '../input/input/loc1_fet_y2000.data',
(PID.TID 0000.0001) > PTRACERS_initialFile(8)= '../input/input/loc1_doc_y2000.data',
(PID.TID 0000.0001) > PTRACERS_initialFile(9)= '../input/input/loc1_don_y2000.data',
(PID.TID 0000.0001) > PTRACERS_initialFile(10)='../input/input/loc1_dop_y2000.data',
(PID.TID 0000.0001) > PTRACERS_initialFile(11)='../input/input/loc1_dofe_y2000.data',
(PID.TID 0000.0001) > PTRACERS_initialFile(12)='../input/input/loc1_poc_y2000.data',
(PID.TID 0000.0001) > PTRACERS_initialFile(13)='../input/input/loc1_pon_y2000.data',
(PID.TID 0000.0001) > PTRACERS_initialFile(14)='../input/input/loc1_pop_y2000.data',
(PID.TID 0000.0001) > PTRACERS_initialFile(15)='../input/input/loc1_posi_y2000.data',
(PID.TID 0000.0001) > PTRACERS_initialFile(16)='../input/input/loc1_pofe_y2000.data',
(PID.TID 0000.0001) > PTRACERS_initialFile(17)='../input/input/loc1_pic_y2000.data',
(PID.TID 0000.0001) > PTRACERS_initialFile(18)='../input/input/loc1_glodap_alk_ann-3d.bin',
(PID.TID 0000.0001) > PTRACERS_initialFile(19)='../input/input/loc1_lev01_oxygen_micromolar_ann-3d.bin',
(PID.TID 0000.0001) > PTRACERS_initialFile(20)='../input/input/loc1_phy_6species_y2000.data',
(PID.TID 0000.0001) > PTRACERS_initialFile(21)='../input/input/loc1_phy_6species_y2000.data',
(PID.TID 0000.0001) > PTRACERS_initialFile(22)='../input/input/loc1_phy_6species_y2000.data',
(PID.TID 0000.0001) > PTRACERS_initialFile(23)='../input/input/loc1_phy_6species_y2000.data',
(PID.TID 0000.0001) > PTRACERS_initialFile(24)='../input/input/loc1_phy_6species_y2000.data',
(PID.TID 0000.0001) > PTRACERS_initialFile(25)='../input/input/loc1_phy_6species_y2000.data',
(PID.TID 0000.0001) > PTRACERS_initialFile(26)='../input/input/loc1_zoop_y2000.data',
(PID.TID 0000.0001) > PTRACERS_initialFile(27)='../input/input/loc1_zoop_y2000.data',
(PID.TID 0000.0001) > PTRACERS_initialFile(28)=' ',
(PID.TID 0000.0001) > PTRACERS_initialFile(29)=' ',
(PID.TID 0000.0001) > PTRACERS_initialFile(30)=' ',
(PID.TID 0000.0001) > PTRACERS_initialFile(31)=' ',
(PID.TID 0000.0001) > PTRACERS_initialFile(32)=' ',
(PID.TID 0000.0001) > PTRACERS_initialFile(33)=' ',
(PID.TID 0000.0001) > /
(PID.TID 0000.0001) 
(PID.TID 0000.0001)  PTRACERS_READPARMS: finished reading data.ptracers
(PID.TID 0000.0001)  GCHEM_READPARMS: opening data.gchem
(PID.TID 0000.0001)  OPEN_COPY_DATA_FILE: opening file data.gchem
(PID.TID 0000.0001) // =======================================================
(PID.TID 0000.0001) // Parameter file "data.gchem"
(PID.TID 0000.0001) // =======================================================
(PID.TID 0000.0001) > &GCHEM_PARM01
(PID.TID 0000.0001) >  useDARWIN=.TRUE.,
(PID.TID 0000.0001) >  nsubtime=1,
(PID.TID 0000.0001) > /
(PID.TID 0000.0001) 
(PID.TID 0000.0001)  GCHEM_READPARMS: finished reading data.gchem
(PID.TID 0000.0001)  DARWIN_READPARMS: opening data.darwin
(PID.TID 0000.0001)  OPEN_COPY_DATA_FILE: opening file data.darwin
(PID.TID 0000.0001) // =======================================================
(PID.TID 0000.0001) // Parameter file "data.darwin"
(PID.TID 0000.0001) // =======================================================
(PID.TID 0000.0001) >########################
(PID.TID 0000.0001) > &DARWIN_FORCING_PARAMS
(PID.TID 0000.0001) > darwin_chlInitBalanced= T,
(PID.TID 0000.0001) > /
(PID.TID 0000.0001) >########################
(PID.TID 0000.0001) > &DARWIN_EXF_PARAMS
(PID.TID 0000.0001) > ironFile='../input/input/loc1_mahowald2009_solubile_current_smooth_oce_mth-2d.bin',
(PID.TID 0000.0001) > PARFile='../input/input/loc1_ecco_oasim_total_below_oneband_einm2d.bin',
(PID.TID 0000.0001) > windFile='../input/input/loc1_tren_speed_mth-2d.bin',
(PID.TID 0000.0001) > ironPeriod= -12.,
(PID.TID 0000.0001) > PARPeriod= -12.,
(PID.TID 0000.0001) > windPeriod= -12.,
(PID.TID 0000.0001) > darwin_inscal_iron= 1000.,
(PID.TID 0000.0001) > darwin_inscal_PAR= 11.574074074074,
(PID.TID 0000.0001) > /
(PID.TID 0000.0001) >########################
(PID.TID 0000.0001) > &DARWIN_PARAMS
(PID.TID 0000.0001) > darwin_allometric= F,
(PID.TID 0000.0001) > darwin_seed= 56,
(PID.TID 0000.0001) > darwin_read_phos= T,
(PID.TID 0000.0001) > tempCoeffArr= 0.8,
(PID.TID 0000.0001) > PARmin= 1.0,
(PID.TID 0000.0001) > alpfe= 1.0,
(PID.TID 0000.0001) > freefemax = .1E-4,
(PID.TID 0000.0001) > depthfesed= 7000.,
(PID.TID 0000.0001) > scav_rat= 1.73611111111111111111E-7,
(PID.TID 0000.0001) > kdoc=  3.8580246913580247E-07,  ! 1/30day
(PID.TID 0000.0001) > kdop=  3.8580246913580247E-07,  ! 1/30day
(PID.TID 0000.0001) > kdon=  3.8580246913580247E-07,  ! 1/30day
(PID.TID 0000.0001) > kdofe= 3.8580246913580247E-07,  ! 1/30day
(PID.TID 0000.0001) > kPOC=  3.8580246913580247E-07,  ! 1/30day
(PID.TID 0000.0001) > kPOP=  3.8580246913580247E-07,  ! 1/30day
(PID.TID 0000.0001) > kPON=  3.8580246913580247E-07,  ! 1/30day
(PID.TID 0000.0001) > kPOFe= 3.8580246913580247E-07,  ! 1/30day
(PID.TID 0000.0001) > kPOSi= 7.7160493827160493E-08,  ! 1/150day
(PID.TID 0000.0001) > phygrazmin= 120E-10,
(PID.TID 0000.0001) > darwin_atmos_pCO2= 278E-6,
(PID.TID 0000.0001) > /
(PID.TID 0000.0001) >########################
(PID.TID 0000.0001) > &DARWIN_RADTRANS_PARAMS
(PID.TID 0000.0001) > /
(PID.TID 0000.0001) >########################
(PID.TID 0000.0001) > &DARWIN_TRAIT_PARAMS
(PID.TID 0000.0001) >#
(PID.TID 0000.0001) > diaz_growfac=  4.0,
(PID.TID 0000.0001) > cocco_growfac=  1.2,
(PID.TID 0000.0001) > diatom_growfac=  0.95,
(PID.TID 0000.0001) > smallmort=  7.0,
(PID.TID 0000.0001) > bigmort=  7.0,
(PID.TID 0000.0001) > zoomortsmall= 2.3148148148148148e-07,  ! 1/50days
(PID.TID 0000.0001) > zoomortbig=   2.3148148148148148e-07,  ! 1/50days
(PID.TID 0000.0001) > zoomortsmall2= 9.259259259259258e-07,  ! 16*.6/120/day
(PID.TID 0000.0001) > zoomortbig2=   9.259259259259258e-07,  ! 16*.6/120/day
(PID.TID 0000.0001) > smallexport= 0.1,
(PID.TID 0000.0001) > bigexport= 0.4,
(PID.TID 0000.0001) > tempcoeff2_small= 0.0003,
(PID.TID 0000.0001) > tempcoeff2_big= 0.0003,
(PID.TID 0000.0001) >#
(PID.TID 0000.0001) > val_R_FeC_diaz=   3.3333333333333333E-5,
(PID.TID 0000.0001) > val_R_NC_diaz=    0.33333333333333333,
(PID.TID 0000.0001) > val_R_SiC_diatom= 0.13333333333333333,
(PID.TID 0000.0001) > val_R_PICPOC= 0.8,
(PID.TID 0000.0001) >#
(PID.TID 0000.0001) > smallpsat= 0.012,
(PID.TID 0000.0001) > bigpsat=   0.035,
(PID.TID 0000.0001) > procpsat=  0.011,
(PID.TID 0000.0001) > unidzpsat= 0.012,
(PID.TID 0000.0001) > coccopsat= 0.028,
(PID.TID 0000.0001) > smallpsatrange=  0.,
(PID.TID 0000.0001) > bigpsatrange=  0.,
(PID.TID 0000.0001) > procpsatrange=  0.,
(PID.TID 0000.0001) > unidzpsatrange=  0.,
(PID.TID 0000.0001) > coccopsatrange= 0.,
(PID.TID 0000.0001) >#
(PID.TID 0000.0001) > smallmqyield=  5E-5,
(PID.TID 0000.0001) > smallmqyieldrange=  0.,
(PID.TID 0000.0001) > bigmqyield=  3.E-5,
(PID.TID 0000.0001) > bigmqyieldrange=  0.,
(PID.TID 0000.0001) > smallchl2cmax= 0.2,
(PID.TID 0000.0001) > smallchl2cmaxrange= 0.,
(PID.TID 0000.0001) > bigchl2cmax= 0.5,
(PID.TID 0000.0001) > bigchl2cmaxrange= 0.,
(PID.TID 0000.0001) >#
(PID.TID 0000.0001) > val_acclimtimescl=  5.7870370370370370E-6,
(PID.TID 0000.0001) >#
(PID.TID 0000.0001) > zooexfacsmall= 0.2,
(PID.TID 0000.0001) > zooexfacbig= 0.6,
(PID.TID 0000.0001) >#
(PID.TID 0000.0001) > grazeefflow= 0.4,
(PID.TID 0000.0001) > grazeeffmod= 0.8,
(PID.TID 0000.0001) > grazeeffhi= 0.9,
(PID.TID 0000.0001) > diatomgraz= 0.86,
(PID.TID 0000.0001) > coccograz= 0.8,
(PID.TID 0000.0001) > olargegraz=  0.9,
(PID.TID 0000.0001) >#
(PID.TID 0000.0001) > kgrazesat_val=  6.,
(PID.TID 0000.0001) > /
(PID.TID 0000.0001) > &DARWIN_ALLOMETRIC_PARAMS
(PID.TID 0000.0001) > /
(PID.TID 0000.0001) 
(PID.TID 0000.0001)  ===================================
(PID.TID 0000.0001)  DIAGNOSTICS_READPARMS: opening data.diagnostics
(PID.TID 0000.0001)  OPEN_COPY_DATA_FILE: opening file data.diagnostics
(PID.TID 0000.0001) // =======================================================
(PID.TID 0000.0001) // Parameter file "data.diagnostics"
(PID.TID 0000.0001) // =======================================================
(PID.TID 0000.0001) > &diagnostics_list
(PID.TID 0000.0001) > filename(1)= 'darwin',
(PID.TID 0000.0001) > frequency(1)= 3600.,
(PID.TID 0000.0001) > fields(1,1)= 'TRAC01  ',
(PID.TID 0000.0001) > fields(2,1)= 'TRAC02  ',
(PID.TID 0000.0001) > fields(3,1)= 'TRAC03  ',
(PID.TID 0000.0001) > fields(4,1)= 'TRAC04  ',
(PID.TID 0000.0001) > fields(5,1)= 'TRAC05  ',
(PID.TID 0000.0001) > fields(6,1)= 'TRAC06  ',
(PID.TID 0000.0001) > fields(7,1)= 'TRAC07  ',
(PID.TID 0000.0001) > fields(8,1)= 'TRAC08  ',
(PID.TID 0000.0001) > fields(9,1)= 'TRAC09  ',
(PID.TID 0000.0001) > fields(10,1)= 'TRAC10  ',
(PID.TID 0000.0001) > fields(11,1)= 'TRAC11  ',
(PID.TID 0000.0001) > fields(12,1)= 'TRAC12  ',
(PID.TID 0000.0001) > fields(13,1)= 'TRAC13  ',
(PID.TID 0000.0001) > fields(14,1)= 'TRAC14  ',
(PID.TID 0000.0001) > fields(15,1)= 'TRAC15  ',
(PID.TID 0000.0001) > fields(16,1)= 'TRAC16  ',
(PID.TID 0000.0001) > fields(17,1)= 'TRAC17  ',
(PID.TID 0000.0001) > fields(18,1)= 'TRAC18  ',
(PID.TID 0000.0001) > fields(19,1)= 'TRAC19  ',
(PID.TID 0000.0001) > fields(20,1)= 'TRAC20  ',
(PID.TID 0000.0001) > fields(21,1)= 'TRAC21  ',
(PID.TID 0000.0001) > fields(22,1)= 'TRAC22  ',
(PID.TID 0000.0001) > fields(23,1)= 'TRAC23  ',
(PID.TID 0000.0001) > fields(24,1)= 'TRAC24  ',
(PID.TID 0000.0001) > fields(25,1)= 'TRAC25  ',
(PID.TID 0000.0001) > fields(26,1)= 'TRAC26  ',
(PID.TID 0000.0001) > fields(27,1)= 'TRAC27  ',
(PID.TID 0000.0001) > fields(28,1)= 'TRAC28  ',
(PID.TID 0000.0001) > fields(29,1)= 'TRAC29  ',
(PID.TID 0000.0001) > fields(30,1)= 'TRAC30  ',
(PID.TID 0000.0001) > fields(31,1)= 'PARF    ',
(PID.TID 0000.0001) > fields(32,1)= 'atten   ',
(PID.TID 0000.0001) > fields(33,1)= 'surfPAR ',
(PID.TID 0000.0001) > fields(34,1)= 'exfPAR  ',
(PID.TID 0000.0001) > /
(PID.TID 0000.0001) > &diag_statis_parms
(PID.TID 0000.0001) > /
(PID.TID 0000.0001) 
(PID.TID 0000.0001) S/R DIAGNOSTICS_READPARMS, read namelist "diagnostics_list": start
(PID.TID 0000.0001) S/R DIAGNOSTICS_READPARMS, read namelist "diagnostics_list": OK
(PID.TID 0000.0001) S/R DIAGNOSTICS_READPARMS, read namelist "DIAG_STATIS_PARMS": start
(PID.TID 0000.0001) S/R DIAGNOSTICS_READPARMS, read namelist "DIAG_STATIS_PARMS": OK
(PID.TID 0000.0001)  DIAGNOSTICS_READPARMS: global parameter summary:
(PID.TID 0000.0001)  dumpAtLast = /* always write time-ave diags at the end */
(PID.TID 0000.0001)                   F
(PID.TID 0000.0001)     ;
(PID.TID 0000.0001)  diag_mnc =   /* write NetCDF output files */
(PID.TID 0000.0001)                   T
(PID.TID 0000.0001)     ;
(PID.TID 0000.0001)  useMissingValue = /* put MissingValue where mask = 0 */
(PID.TID 0000.0001)                   F
(PID.TID 0000.0001)     ;
(PID.TID 0000.0001)  diagCG_maxIters = /* max number of iters in diag_cg2d */
(PID.TID 0000.0001)                     300
(PID.TID 0000.0001)     ;
(PID.TID 0000.0001)  diagCG_resTarget = /* residual target for diag_cg2d */
(PID.TID 0000.0001)                 1.000000000000000E-07
(PID.TID 0000.0001)     ;
(PID.TID 0000.0001) -----------------------------------------------------
(PID.TID 0000.0001)  DIAGNOSTICS_READPARMS: active diagnostics summary:
(PID.TID 0000.0001) -----------------------------------------------------
(PID.TID 0000.0001) Creating Output Stream: darwin
(PID.TID 0000.0001) Output Frequency:       3600.000000 ; Phase:           0.000000
(PID.TID 0000.0001)  Averaging Freq.:       3600.000000 , Phase:           0.000000 , Cycle:   1
(PID.TID 0000.0001)  missing value:  1.234567000000E+05 ; for integers:   123456789
(PID.TID 0000.0001)  Levels:    will be set later
(PID.TID 0000.0001)  Fields:    TRAC01   TRAC02   TRAC03   TRAC04   TRAC05   TRAC06   TRAC07   TRAC08   TRAC09   TRAC10
(PID.TID 0000.0001)  Fields:    TRAC11   TRAC12   TRAC13   TRAC14   TRAC15   TRAC16   TRAC17   TRAC18   TRAC19   TRAC20
(PID.TID 0000.0001)  Fields:    TRAC21   TRAC22   TRAC23   TRAC24   TRAC25   TRAC26   TRAC27   TRAC28   TRAC29   TRAC30
(PID.TID 0000.0001)  Fields:    PARF     atten    surfPAR  exfPAR
(PID.TID 0000.0001) -----------------------------------------------------
(PID.TID 0000.0001)  DIAGNOSTICS_READPARMS: statistics diags. summary:
(PID.TID 0000.0001) -----------------------------------------------------
(PID.TID 0000.0001) 
(PID.TID 0000.0001) SET_PARMS: done
(PID.TID 0000.0001) Enter INI_VERTICAL_GRID: setInterFDr=    T ; setCenterDr=    F
(PID.TID 0000.0001) %MON XC_max                       =   5.0000000000000000E-01
(PID.TID 0000.0001) %MON XC_min                       =   5.0000000000000000E-01
(PID.TID 0000.0001) %MON XC_mean                      =   5.0000000000000000E-01
(PID.TID 0000.0001) %MON XC_sd                        =   0.0000000000000000E+00
(PID.TID 0000.0001) %MON XG_max                       =   0.0000000000000000E+00
(PID.TID 0000.0001) %MON XG_min                       =   0.0000000000000000E+00
(PID.TID 0000.0001) %MON XG_mean                      =   0.0000000000000000E+00
(PID.TID 0000.0001) %MON XG_sd                        =   0.0000000000000000E+00
(PID.TID 0000.0001) %MON DXC_max                      =   7.9297382804168723E+04
(PID.TID 0000.0001) %MON DXC_min                      =   7.9297382804168723E+04
(PID.TID 0000.0001) %MON DXC_mean                     =   7.9297382804168723E+04
(PID.TID 0000.0001) %MON DXC_sd                       =   0.0000000000000000E+00
(PID.TID 0000.0001) %MON DXF_max                      =   7.9297382804168723E+04
(PID.TID 0000.0001) %MON DXF_min                      =   7.9297382804168723E+04
(PID.TID 0000.0001) %MON DXF_mean                     =   7.9297382804168723E+04
(PID.TID 0000.0001) %MON DXF_sd                       =   0.0000000000000000E+00
(PID.TID 0000.0001) %MON DXG_max                      =   7.8614345322413312E+04
(PID.TID 0000.0001) %MON DXG_min                      =   7.8614345322413312E+04
(PID.TID 0000.0001) %MON DXG_mean                     =   7.8614345322413312E+04
(PID.TID 0000.0001) %MON DXG_sd                       =   0.0000000000000000E+00
(PID.TID 0000.0001) %MON DXV_max                      =   7.8614345322413312E+04
(PID.TID 0000.0001) %MON DXV_min                      =   7.8614345322413312E+04
(PID.TID 0000.0001) %MON DXV_mean                     =   7.8614345322413312E+04
(PID.TID 0000.0001) %MON DXV_sd                       =   0.0000000000000000E+00
(PID.TID 0000.0001) %MON YC_max                       =  -4.4500000000000000E+01
(PID.TID 0000.0001) %MON YC_min                       =  -4.4500000000000000E+01
(PID.TID 0000.0001) %MON YC_mean                      =  -4.4500000000000000E+01
(PID.TID 0000.0001) %MON YC_sd                        =   0.0000000000000000E+00
(PID.TID 0000.0001) %MON YG_max                       =  -4.5000000000000000E+01
(PID.TID 0000.0001) %MON YG_min                       =  -4.5000000000000000E+01
(PID.TID 0000.0001) %MON YG_mean                      =  -4.5000000000000000E+01
(PID.TID 0000.0001) %MON YG_sd                        =   0.0000000000000000E+00
(PID.TID 0000.0001) %MON DYC_max                      =   1.1117747335203880E+05
(PID.TID 0000.0001) %MON DYC_min                      =   1.1117747335203880E+05
(PID.TID 0000.0001) %MON DYC_mean                     =   1.1117747335203880E+05
(PID.TID 0000.0001) %MON DYC_sd                       =   0.0000000000000000E+00
(PID.TID 0000.0001) %MON DYF_max                      =   1.1117747335203880E+05
(PID.TID 0000.0001) %MON DYF_min                      =   1.1117747335203880E+05
(PID.TID 0000.0001) %MON DYF_mean                     =   1.1117747335203880E+05
(PID.TID 0000.0001) %MON DYF_sd                       =   0.0000000000000000E+00
(PID.TID 0000.0001) %MON DYG_max                      =   1.1117747335203880E+05
(PID.TID 0000.0001) %MON DYG_min                      =   1.1117747335203880E+05
(PID.TID 0000.0001) %MON DYG_mean                     =   1.1117747335203880E+05
(PID.TID 0000.0001) %MON DYG_sd                       =   0.0000000000000000E+00
(PID.TID 0000.0001) %MON DYU_max                      =   1.1117747335203880E+05
(PID.TID 0000.0001) %MON DYU_min                      =   1.1117747335203880E+05
(PID.TID 0000.0001) %MON DYU_mean                     =   1.1117747335203880E+05
(PID.TID 0000.0001) %MON DYU_sd                       =   0.0000000000000000E+00
(PID.TID 0000.0001) %MON RA_max                       =   8.8159707668415375E+09
(PID.TID 0000.0001) %MON RA_min                       =   8.8159707668415375E+09
(PID.TID 0000.0001) %MON RA_mean                      =   8.8159707668415375E+09
(PID.TID 0000.0001) %MON RA_sd                        =   0.0000000000000000E+00
(PID.TID 0000.0001) %MON RAW_max                      =   8.8159707668415375E+09
(PID.TID 0000.0001) %MON RAW_min                      =   8.8159707668415375E+09
(PID.TID 0000.0001) %MON RAW_mean                     =   8.8159707668415375E+09
(PID.TID 0000.0001) %MON RAW_sd                       =   0.0000000000000000E+00
(PID.TID 0000.0001) %MON RAS_max                      =   8.7400333492513199E+09
(PID.TID 0000.0001) %MON RAS_min                      =   8.7400333492513199E+09
(PID.TID 0000.0001) %MON RAS_mean                     =   8.7400333492513199E+09
(PID.TID 0000.0001) %MON RAS_sd                       =   0.0000000000000000E+00
(PID.TID 0000.0001) %MON RAZ_max                      =   8.7400333492513199E+09
(PID.TID 0000.0001) %MON RAZ_min                      =   8.7400333492513199E+09
(PID.TID 0000.0001) %MON RAZ_mean                     =   8.7400333492513199E+09
(PID.TID 0000.0001) %MON RAZ_sd                       =   0.0000000000000000E+00
(PID.TID 0000.0001) %MON AngleCS_max                  =   1.0000000000000000E+00
(PID.TID 0000.0001) %MON AngleCS_min                  =   1.0000000000000000E+00
(PID.TID 0000.0001) %MON AngleCS_mean                 =   1.0000000000000000E+00
(PID.TID 0000.0001) %MON AngleCS_sd                   =   0.0000000000000000E+00
(PID.TID 0000.0001) %MON AngleSN_max                  =   0.0000000000000000E+00
(PID.TID 0000.0001) %MON AngleSN_min                  =   0.0000000000000000E+00
(PID.TID 0000.0001) %MON AngleSN_mean                 =   0.0000000000000000E+00
(PID.TID 0000.0001) %MON AngleSN_sd                   =   0.0000000000000000E+00
(PID.TID 0000.0001)  MDS_READ_FIELD: opening global file: ../input/input/bathyneg.bin
(PID.TID 0000.0001) // =======================================================
(PID.TID 0000.0001) // Field Model R_low (ini_masks_etc)
(PID.TID 0000.0001) // CMIN =         -3.495000000000000E+03
(PID.TID 0000.0001) // CMAX =         -3.495000000000000E+03
(PID.TID 0000.0001) // CINT =          0.000000000000000E+00
(PID.TID 0000.0001) // SYMBOLS (CMIN->CMAX): -abcdefghijklmnopqrstuvwxyz+
(PID.TID 0000.0001) //                  0.0: .
(PID.TID 0000.0001) // RANGE I (Lo:Hi:Step):(    -1:     3:     1)
(PID.TID 0000.0001) // RANGE J (Lo:Hi:Step):(     3:    -1:    -1)
(PID.TID 0000.0001) // RANGE K (Lo:Hi:Step):(   1:   1:   1)
(PID.TID 0000.0001) // =======================================================
(PID.TID 0000.0001) // =======================================================
(PID.TID 0000.0001) // END OF FIELD                                          =
(PID.TID 0000.0001) // =======================================================
(PID.TID 0000.0001) 
(PID.TID 0000.0001) // =======================================================
(PID.TID 0000.0001) // Field Model Ro_surf (ini_masks_etc)
(PID.TID 0000.0001) // CMIN =          1.000000000000000E+32
(PID.TID 0000.0001) // CMAX =         -1.000000000000000E+32
(PID.TID 0000.0001) // CINT =          0.000000000000000E+00
(PID.TID 0000.0001) // SYMBOLS (CMIN->CMAX): -abcdefghijklmnopqrstuvwxyz+
(PID.TID 0000.0001) //                  0.0: .
(PID.TID 0000.0001) // RANGE I (Lo:Hi:Step):(    -1:     3:     1)
(PID.TID 0000.0001) // RANGE J (Lo:Hi:Step):(     3:    -1:    -1)
(PID.TID 0000.0001) // RANGE K (Lo:Hi:Step):(   1:   1:   1)
(PID.TID 0000.0001) // =======================================================
(PID.TID 0000.0001) // =======================================================
(PID.TID 0000.0001) // END OF FIELD                                          =
(PID.TID 0000.0001) // =======================================================
(PID.TID 0000.0001) 
(PID.TID 0000.0001) // =======================================================
(PID.TID 0000.0001) // Field hFacC at iteration          0
(PID.TID 0000.0001) // CMIN =          1.000000000000000E+00
(PID.TID 0000.0001) // CMAX =          1.000000000000000E+00
(PID.TID 0000.0001) // CINT =          0.000000000000000E+00
(PID.TID 0000.0001) // SYMBOLS (CMIN->CMAX): -abcdefghijklmnopqrstuvwxyz+
(PID.TID 0000.0001) //                  0.0: .
(PID.TID 0000.0001) // RANGE I (Lo:Hi:Step):(    -1:     3:     1)
(PID.TID 0000.0001) // RANGE J (Lo:Hi:Step):(     3:    -1:    -1)
(PID.TID 0000.0001) // RANGE K (Lo:Hi:Step):(   1:   1:   1)
(PID.TID 0000.0001) // =======================================================
(PID.TID 0000.0001) // =======================================================
(PID.TID 0000.0001) // END OF FIELD                                          =
(PID.TID 0000.0001) // =======================================================
(PID.TID 0000.0001) 
(PID.TID 0000.0001) // =======================================================
(PID.TID 0000.0001) // Field hFacW at iteration          0
(PID.TID 0000.0001) // CMIN =          1.000000000000000E+00
(PID.TID 0000.0001) // CMAX =          1.000000000000000E+00
(PID.TID 0000.0001) // CINT =          0.000000000000000E+00
(PID.TID 0000.0001) // SYMBOLS (CMIN->CMAX): -abcdefghijklmnopqrstuvwxyz+
(PID.TID 0000.0001) //                  0.0: .
(PID.TID 0000.0001) // RANGE I (Lo:Hi:Step):(    -1:     3:     1)
(PID.TID 0000.0001) // RANGE J (Lo:Hi:Step):(     3:    -1:    -1)
(PID.TID 0000.0001) // RANGE K (Lo:Hi:Step):(   1:   1:   1)
(PID.TID 0000.0001) // =======================================================
(PID.TID 0000.0001) // =======================================================
(PID.TID 0000.0001) // END OF FIELD                                          =
(PID.TID 0000.0001) // =======================================================
(PID.TID 0000.0001) 
(PID.TID 0000.0001) // =======================================================
(PID.TID 0000.0001) // Field hFacS at iteration          0
(PID.TID 0000.0001) // CMIN =          1.000000000000000E+00
(PID.TID 0000.0001) // CMAX =          1.000000000000000E+00
(PID.TID 0000.0001) // CINT =          0.000000000000000E+00
(PID.TID 0000.0001) // SYMBOLS (CMIN->CMAX): -abcdefghijklmnopqrstuvwxyz+
(PID.TID 0000.0001) //                  0.0: .
(PID.TID 0000.0001) // RANGE I (Lo:Hi:Step):(    -1:     3:     1)
(PID.TID 0000.0001) // RANGE J (Lo:Hi:Step):(     3:    -1:    -1)
(PID.TID 0000.0001) // RANGE K (Lo:Hi:Step):(   1:   1:   1)
(PID.TID 0000.0001) // =======================================================
(PID.TID 0000.0001) // =======================================================
(PID.TID 0000.0001) // END OF FIELD                                          =
(PID.TID 0000.0001) // =======================================================
(PID.TID 0000.0001) 
(PID.TID 0000.0001) 
(PID.TID 0000.0001) // =======================================================
(PID.TID 0000.0001) // Calendar configuration >>> START <<<
(PID.TID 0000.0001) // =======================================================
(PID.TID 0000.0001) 
(PID.TID 0000.0001) modelstart = /* Start time of the model integration [s] */
(PID.TID 0000.0001)                 0.000000000000000E+00
(PID.TID 0000.0001)     ;
(PID.TID 0000.0001) modelend  = /* End time of the model integration [s] */
(PID.TID 0000.0001)                 1.440000000000000E+04
(PID.TID 0000.0001)     ;
(PID.TID 0000.0001) modelstep = /* Time interval for a model forward step [s] */
(PID.TID 0000.0001)                 3.600000000000000E+03
(PID.TID 0000.0001)     ;
(PID.TID 0000.0001) usingGregorianCalendar= /* Calendar Type: Gregorian Calendar */
(PID.TID 0000.0001)                   F
(PID.TID 0000.0001)     ;
(PID.TID 0000.0001) usingJulianCalendar = /* Calendar Type: Julian Calendar */
(PID.TID 0000.0001)                   F
(PID.TID 0000.0001)     ;
(PID.TID 0000.0001) usingModelCalendar  = /* Calendar Type: Model Calendar */
(PID.TID 0000.0001)                   T
(PID.TID 0000.0001)     ;
(PID.TID 0000.0001) modelstartdate YYYYMMDD = /* Model start date YYYY-MM-DD */
(PID.TID 0000.0001)                19920101
(PID.TID 0000.0001)     ;
(PID.TID 0000.0001)   modelstartdate HHMMSS = /* Model start date HH-MM-SS  */
(PID.TID 0000.0001)                       0
(PID.TID 0000.0001)     ;
(PID.TID 0000.0001) modelenddate   YYYYMMDD = /* Model end date YYYY-MM-DD */
(PID.TID 0000.0001)                19920101
(PID.TID 0000.0001)     ;
(PID.TID 0000.0001)   modelenddate   HHMMSS = /* Model end date HH-MM-SS  */
(PID.TID 0000.0001)                   40000
(PID.TID 0000.0001)     ;
(PID.TID 0000.0001) intyears = /* Number of calendar years affected by the integration */
(PID.TID 0000.0001)                       1
(PID.TID 0000.0001)     ;
(PID.TID 0000.0001) intmonths= /* Number of calendar months affected by the integration */
(PID.TID 0000.0001)                       1
(PID.TID 0000.0001)     ;
(PID.TID 0000.0001) intdays = /* Number of calendar days affected by the integration */
(PID.TID 0000.0001)                       1
(PID.TID 0000.0001)     ;
(PID.TID 0000.0001) modeliter0 = /* Base timestep number  */
(PID.TID 0000.0001)                       0
(PID.TID 0000.0001)     ;
(PID.TID 0000.0001) modeliterend = /* Final timestep number  */
(PID.TID 0000.0001)                       4
(PID.TID 0000.0001)     ;
(PID.TID 0000.0001) modelintsteps= /* Number of model timesteps  */
(PID.TID 0000.0001)                       4
(PID.TID 0000.0001)     ;
(PID.TID 0000.0001) 
(PID.TID 0000.0001) // =======================================================
(PID.TID 0000.0001) // Calendar configuration  >>> END <<<
(PID.TID 0000.0001) // =======================================================
(PID.TID 0000.0001) 
(PID.TID 0000.0001) GAD_INIT_FIXED: GAD_OlMinSize=  2  0  1
(PID.TID 0000.0001) 
(PID.TID 0000.0001) // ===================================
(PID.TID 0000.0001) // GAD parameters :
(PID.TID 0000.0001) // ===================================
(PID.TID 0000.0001) tempAdvScheme =   /* Temp. Horiz.Advection scheme selector */
(PID.TID 0000.0001)                       3
(PID.TID 0000.0001)     ;
(PID.TID 0000.0001) tempVertAdvScheme =   /* Temp. Vert. Advection scheme selector */
(PID.TID 0000.0001)                       3
(PID.TID 0000.0001)     ;
(PID.TID 0000.0001) tempMultiDimAdvec =   /* use Muti-Dim Advec method for Temp */
(PID.TID 0000.0001)                   F
(PID.TID 0000.0001)     ;
(PID.TID 0000.0001) tempSOM_Advection = /* use 2nd Order Moment Advection for Temp */
(PID.TID 0000.0001)                   F
(PID.TID 0000.0001)     ;
(PID.TID 0000.0001) AdamsBashforthGt = /* apply Adams-Bashforth extrapolation on Gt */
(PID.TID 0000.0001)                   T
(PID.TID 0000.0001)     ;
(PID.TID 0000.0001) AdamsBashforth_T = /* apply Adams-Bashforth extrapolation on Temp */
(PID.TID 0000.0001)                   F
(PID.TID 0000.0001)     ;
(PID.TID 0000.0001) saltAdvScheme =   /* Salt. Horiz.advection scheme selector */
(PID.TID 0000.0001)                       3
(PID.TID 0000.0001)     ;
(PID.TID 0000.0001) saltVertAdvScheme =   /* Salt. Vert. Advection scheme selector */
(PID.TID 0000.0001)                       3
(PID.TID 0000.0001)     ;
(PID.TID 0000.0001) saltMultiDimAdvec =   /* use Muti-Dim Advec method for Salt */
(PID.TID 0000.0001)                   F
(PID.TID 0000.0001)     ;
(PID.TID 0000.0001) saltSOM_Advection = /* use 2nd Order Moment Advection for Salt */
(PID.TID 0000.0001)                   F
(PID.TID 0000.0001)     ;
(PID.TID 0000.0001) AdamsBashforthGs = /* apply Adams-Bashforth extrapolation on Gs */
(PID.TID 0000.0001)                   F
(PID.TID 0000.0001)     ;
(PID.TID 0000.0001) AdamsBashforth_S = /* apply Adams-Bashforth extrapolation on Salt */
(PID.TID 0000.0001)                   F
(PID.TID 0000.0001)     ;
(PID.TID 0000.0001) // ===================================
(PID.TID 0000.0001) 
(PID.TID 0000.0001) // =======================================================
(PID.TID 0000.0001) // External forcing (EXF) configuration >>> START <<<
(PID.TID 0000.0001) // =======================================================
(PID.TID 0000.0001) 
(PID.TID 0000.0001)  EXF general parameters:
(PID.TID 0000.0001) 
(PID.TID 0000.0001) exf_iprec = /* exf file precision */
(PID.TID 0000.0001)                      32
(PID.TID 0000.0001)     ;
(PID.TID 0000.0001) useExfYearlyFields = /* add extension _YEAR to input file names */
(PID.TID 0000.0001)                   T
(PID.TID 0000.0001)     ;
(PID.TID 0000.0001) twoDigitYear = /* use 2-digit year extension */
(PID.TID 0000.0001)                   T
(PID.TID 0000.0001)     ;
(PID.TID 0000.0001) exf_verbose = /* print more messages to STDOUT */
(PID.TID 0000.0001)                   F
(PID.TID 0000.0001)     ;
(PID.TID 0000.0001) useExfCheckRange = /* check for fields range */
(PID.TID 0000.0001)                   F
(PID.TID 0000.0001)     ;
(PID.TID 0000.0001) exf_monFreq = /* EXF monitor frequency [ s ] */
(PID.TID 0000.0001)                 1.000000000000000E+00
(PID.TID 0000.0001)     ;
(PID.TID 0000.0001) repeatPeriod = /* period for cycling forcing dataset [ s ] */
(PID.TID 0000.0001)                 0.000000000000000E+00
(PID.TID 0000.0001)     ;
(PID.TID 0000.0001) climTempFreeze= /* Minimum climatological temperature [deg.C] */
(PID.TID 0000.0001)                -1.900000000000000E+00
(PID.TID 0000.0001)     ;
(PID.TID 0000.0001) windStressMax = /* Maximum absolute windstress [ Pa ] */
(PID.TID 0000.0001)                 2.000000000000000E+00
(PID.TID 0000.0001)     ;
(PID.TID 0000.0001) stressIsOnCgrid = /* set u,v_stress on Arakawa C-grid */
(PID.TID 0000.0001)                   F
(PID.TID 0000.0001)     ;
(PID.TID 0000.0001) cen2kel = /* conversion of deg. Centigrade to Kelvin [K] */
(PID.TID 0000.0001)                 2.731500000000000E+02
(PID.TID 0000.0001)     ;
(PID.TID 0000.0001) gravity_mks= /* gravitational acceleration [m/s^2] */
(PID.TID 0000.0001)                 9.810000000000000E+00
(PID.TID 0000.0001)     ;
(PID.TID 0000.0001) atmrho =  /* mean atmospheric density [kg/m^3] */
(PID.TID 0000.0001)                 1.200000000000000E+00
(PID.TID 0000.0001)     ;
(PID.TID 0000.0001) atmcp =  /* mean atmospheric specific heat [J/kg/K] */
(PID.TID 0000.0001)                 1.005000000000000E+03
(PID.TID 0000.0001)     ;
(PID.TID 0000.0001) flamb =  /* latent heat of evaporation [J/kg] */
(PID.TID 0000.0001)                 2.500000000000000E+06
(PID.TID 0000.0001)     ;
(PID.TID 0000.0001) flami =  /* latent heat of pure-ice melting [J/kg] */
(PID.TID 0000.0001)                 3.340000000000000E+05
(PID.TID 0000.0001)     ;
(PID.TID 0000.0001) cvapor_fac = /* const. for Saturation calculation [?] */
(PID.TID 0000.0001)                 6.403800000000000E+05
(PID.TID 0000.0001)     ;
(PID.TID 0000.0001) cvapor_exp = /* const. for Saturation calculation [?] */
(PID.TID 0000.0001)                 5.107400000000000E+03
(PID.TID 0000.0001)     ;
(PID.TID 0000.0001) cvapor_fac_ice= /* const. for Saturation calculation [?] */
(PID.TID 0000.0001)                 1.163780000000000E+07
(PID.TID 0000.0001)     ;
(PID.TID 0000.0001) cvapor_exp_ice= /* const. for Saturation calculation [?] */
(PID.TID 0000.0001)                 5.897800000000000E+03
(PID.TID 0000.0001)     ;
(PID.TID 0000.0001) humid_fac = /* humidity coef. in virtual temp. [(kg/kg)^-1] */
(PID.TID 0000.0001)                 6.060000000000000E-01
(PID.TID 0000.0001)     ;
(PID.TID 0000.0001) gamma_blk = /* adiabatic lapse rate [?] */
(PID.TID 0000.0001)                 1.000000000000000E-02
(PID.TID 0000.0001)     ;
(PID.TID 0000.0001) saltsat = /* reduction of Qsat over salty water [-] */
(PID.TID 0000.0001)                 9.800000000000000E-01
(PID.TID 0000.0001)     ;
(PID.TID 0000.0001) noNegativeEvap = /* prevent negative Evaporation */
(PID.TID 0000.0001)                   F
(PID.TID 0000.0001)     ;
(PID.TID 0000.0001) sstExtrapol = /* extrapolation coeff from lev. 1 & 2 to surf [-] */
(PID.TID 0000.0001)                 0.000000000000000E+00
(PID.TID 0000.0001)     ;
(PID.TID 0000.0001) cDrag_1 = /* coef used in drag calculation [?] */
(PID.TID 0000.0001)                 2.700000000000000E-03
(PID.TID 0000.0001)     ;
(PID.TID 0000.0001) cDrag_2 = /* coef used in drag calculation [?] */
(PID.TID 0000.0001)                 1.420000000000000E-04
(PID.TID 0000.0001)     ;
(PID.TID 0000.0001) cDrag_3 = /* coef used in drag calculation [?] */
(PID.TID 0000.0001)                 7.640000000000000E-05
(PID.TID 0000.0001)     ;
(PID.TID 0000.0001) cStanton_1 = /* coef used in Stanton number calculation [?] */
(PID.TID 0000.0001)                 3.270000000000000E-02
(PID.TID 0000.0001)     ;
(PID.TID 0000.0001) cStanton_2 = /* coef used in Stanton number calculation [?] */
(PID.TID 0000.0001)                 1.800000000000000E-02
(PID.TID 0000.0001)     ;
(PID.TID 0000.0001) cDalton = /* coef used in Dalton number calculation [?] */
(PID.TID 0000.0001)                 3.460000000000000E-02
(PID.TID 0000.0001)     ;
(PID.TID 0000.0001) exf_scal_BulkCdn= /* Drag coefficient scaling factor [-] */
(PID.TID 0000.0001)                 1.000000000000000E+00
(PID.TID 0000.0001)     ;
(PID.TID 0000.0001) zolmin = /* minimum stability parameter [?] */
(PID.TID 0000.0001)                -1.000000000000000E+02
(PID.TID 0000.0001)     ;
(PID.TID 0000.0001) psim_fac = /* coef used in turbulent fluxes calculation [-] */
(PID.TID 0000.0001)                 5.000000000000000E+00
(PID.TID 0000.0001)     ;
(PID.TID 0000.0001) zref =  /* reference height [ m ] */
(PID.TID 0000.0001)                 1.000000000000000E+01
(PID.TID 0000.0001)     ;
(PID.TID 0000.0001) hu =  /* height of mean wind [ m ] */
(PID.TID 0000.0001)                 1.000000000000000E+01
(PID.TID 0000.0001)     ;
(PID.TID 0000.0001) ht =  /* height of mean temperature [ m ] */
(PID.TID 0000.0001)                 2.000000000000000E+00
(PID.TID 0000.0001)     ;
(PID.TID 0000.0001) hq =  /* height of mean spec.humidity [ m ] */
(PID.TID 0000.0001)                 2.000000000000000E+00
(PID.TID 0000.0001)     ;
(PID.TID 0000.0001) uMin = /* minimum wind speed [m/s] */
(PID.TID 0000.0001)                 5.000000000000000E-01
(PID.TID 0000.0001)     ;
(PID.TID 0000.0001) useStabilityFct_overIce= /* transfert Coeffs over sea-ice depend on stability */
(PID.TID 0000.0001)                   F
(PID.TID 0000.0001)     ;
(PID.TID 0000.0001) exf_iceCd = /* drag coefficient over sea-ice (fixed) [-] */
(PID.TID 0000.0001)                 1.630000000000000E-03
(PID.TID 0000.0001)     ;
(PID.TID 0000.0001) exf_iceCe = /* transfert coeff. over sea-ice, for Evap (fixed) [-] */
(PID.TID 0000.0001)                 1.630000000000000E-03
(PID.TID 0000.0001)     ;
(PID.TID 0000.0001) exf_iceCh = /* transfert coeff. over sea-ice, Sens.Heat.(fixed)[-] */
(PID.TID 0000.0001)                 1.630000000000000E-03
(PID.TID 0000.0001)     ;
(PID.TID 0000.0001) exf_albedo =  /* Sea-water albedo [-] */
(PID.TID 0000.0001)                 1.500000000000000E-01
(PID.TID 0000.0001)     ;
(PID.TID 0000.0001) useExfZenAlbedo = /* Sea-water albedo varies with zenith angle */
(PID.TID 0000.0001)                   F
(PID.TID 0000.0001)     ;
(PID.TID 0000.0001) select_ZenAlbedo = /* Sea-water albedo computation method */
(PID.TID 0000.0001)                       0
(PID.TID 0000.0001)     ;
(PID.TID 0000.0001) useExfZenIncoming = /* compute incoming solar radiation */
(PID.TID 0000.0001)                   F
(PID.TID 0000.0001)     ;
(PID.TID 0000.0001) ocean_emissivity = /* longwave ocean-surface emissivity [-] */
(PID.TID 0000.0001)                 9.700176366843034E-01
(PID.TID 0000.0001)     ;
(PID.TID 0000.0001) ice_emissivity = /* longwave seaice emissivity [-] */
(PID.TID 0000.0001)                 9.500000000000000E-01
(PID.TID 0000.0001)     ;
(PID.TID 0000.0001) snow_emissivity = /* longwave snow  emissivity [-] */
(PID.TID 0000.0001)                 9.500000000000000E-01
(PID.TID 0000.0001)     ;
(PID.TID 0000.0001) 
(PID.TID 0000.0001)  EXF main CPP flags:
(PID.TID 0000.0001) 
(PID.TID 0000.0001) // USE_EXF_INTERPOLATION:          NOT defined
(PID.TID 0000.0001) // ALLOW_ATM_TEMP:                     defined
(PID.TID 0000.0001) // ALLOW_ATM_WIND (useAtmWind):        defined
(PID.TID 0000.0001) // ALLOW_DOWNWARD_RADIATION:           defined
(PID.TID 0000.0001) // ALLOW_BULKFORMULAE:                 defined
(PID.TID 0000.0001) 
(PID.TID 0000.0001)    Net shortwave flux forcing starts at                0.
(PID.TID 0000.0001)    Net shortwave flux forcing period is                0.
(PID.TID 0000.0001)    Net shortwave flux forcing is read from file:
(PID.TID 0000.0001)    >>    <<
(PID.TID 0000.0001) 
(PID.TID 0000.0001)    Zonal wind forcing starts at                          0.
(PID.TID 0000.0001)    Zonal wind forcing period is                          0.
(PID.TID 0000.0001)    Zonal wind forcing is read from file:
(PID.TID 0000.0001)    >>    <<
(PID.TID 0000.0001) 
(PID.TID 0000.0001)    Meridional wind forcing starts at                     0.
(PID.TID 0000.0001)    Meridional wind forcing period is                     0.
(PID.TID 0000.0001)    Meridional wind forcing is read from file:
(PID.TID 0000.0001)    >>    <<
(PID.TID 0000.0001) 
(PID.TID 0000.0001)    Atmospheric temperature starts at                     0.
(PID.TID 0000.0001)    Atmospheric temperature period is                     0.
(PID.TID 0000.0001)    Atmospheric temperature is read from file:
(PID.TID 0000.0001)    >>    <<
(PID.TID 0000.0001) 
(PID.TID 0000.0001)    Atmospheric specific humidity starts at               0.
(PID.TID 0000.0001)    Atmospheric specific humidity period is               0.
(PID.TID 0000.0001)    Atmospheric specific humidity is read from file:
(PID.TID 0000.0001)    >>    <<
(PID.TID 0000.0001) 
(PID.TID 0000.0001)    Net longwave flux forcing starts at                 0.
(PID.TID 0000.0001)    Net longwave flux forcing period is                 0.
(PID.TID 0000.0001)    Net longwave flux forcing is read from file:
(PID.TID 0000.0001)    >>    <<
(PID.TID 0000.0001) 
(PID.TID 0000.0001)    Precipitation data set starts at                      0.
(PID.TID 0000.0001)    Precipitation data period is                          0.
(PID.TID 0000.0001)    Precipitation data is read from file:
(PID.TID 0000.0001)    >>    <<
(PID.TID 0000.0001) 
(PID.TID 0000.0001) // EXF_READ_EVAP:                  NOT defined
(PID.TID 0000.0001) 
(PID.TID 0000.0001) // ALLOW_RUNOFF:                       defined
(PID.TID 0000.0001)    Runoff starts at               0.
(PID.TID 0000.0001)    Runoff period is               0.
(PID.TID 0000.0001)    Runoff is read from file:
(PID.TID 0000.0001)    >>    <<
(PID.TID 0000.0001) 
(PID.TID 0000.0001)    Downward shortwave flux forcing starts at                0.
(PID.TID 0000.0001)    Downward shortwave flux forcing period is                0.
(PID.TID 0000.0001)    Downward shortwave flux forcing is read from file:
(PID.TID 0000.0001)    >>    <<
(PID.TID 0000.0001) 
(PID.TID 0000.0001)    Downward longwave flux forcing starts at                 0.
(PID.TID 0000.0001)    Downward longwave flux forcing period is                 0.
(PID.TID 0000.0001)    Downward longwave flux forcing is read from file:
(PID.TID 0000.0001)    >>    <<
(PID.TID 0000.0001) 
(PID.TID 0000.0001)    Atmospheric pressure forcing starts at                0.
(PID.TID 0000.0001)    Atmospheric pressure forcing period is                0.
(PID.TID 0000.0001)    Atmospheric pressureforcing is read from file:
(PID.TID 0000.0001)    >>    <<
(PID.TID 0000.0001) 
(PID.TID 0000.0001) // =======================================================
(PID.TID 0000.0001) // External forcing (EXF) climatology configuration :
(PID.TID 0000.0001) // =======================================================
(PID.TID 0000.0001) 
(PID.TID 0000.0001) // ALLOW_CLIMSST_RELAXATION:       NOT defined
(PID.TID 0000.0001) // ALLOW_CLIMSSS_RELAXATION:       NOT defined
(PID.TID 0000.0001) 
(PID.TID 0000.0001) // =======================================================
(PID.TID 0000.0001) // External forcing (EXF) configuration  >>> END <<<
(PID.TID 0000.0001) // =======================================================
(PID.TID 0000.0001) 
(PID.TID 0000.0001) QQ random port_rand               56   0.3052905000000000
(PID.TID 0000.0001)  OPEN_COPY_DATA_FILE: opening file data.traits
(PID.TID 0000.0001) // =======================================================
(PID.TID 0000.0001) // Parameter file "data.traits"
(PID.TID 0000.0001) // =======================================================
(PID.TID 0000.0001) > &DARWIN_TRAITS
(PID.TID 0000.0001) >#          Diat L  S  P az coc Z1 Z2
(PID.TID 0000.0001) > PHYSIZE=    1, 1, 0, 0, 1, 1, 0, 1,
(PID.TID 0000.0001) > DIACOC=     1, 0, 0, 0, 0, 2,
(PID.TID 0000.0001) > DIAZOTROPH= 0, 0, 0, 0, 1, 0,
(PID.TID 0000.0001) > NSOURCE=    3, 3, 3, 1, 0, 3,
(PID.TID 0000.0001) > wsink(5)= 0.0,
(PID.TID 0000.0001) > palat(5,7)= 0.1350,
(PID.TID 0000.0001) > palat(5,8)= 0.675,
(PID.TID 0000.0001) > morttempfuncmin= 8*0.0,
(PID.TID 0000.0001) > mort2tempfuncmin= 8*0.0,
(PID.TID 0000.0001) > /
(PID.TID 0000.0001) 
(PID.TID 0000.0001)  DARWIN_INIT_FIXED: opening data.traits
(PID.TID 0000.0001)  OPEN_COPY_DATA_FILE: opening file data.traits
(PID.TID 0000.0001) // =======================================================
(PID.TID 0000.0001) // Parameter file "data.traits"
(PID.TID 0000.0001) // =======================================================
(PID.TID 0000.0001) > &DARWIN_TRAITS
(PID.TID 0000.0001) >#          Diat L  S  P az coc Z1 Z2
(PID.TID 0000.0001) > PHYSIZE=    1, 1, 0, 0, 1, 1, 0, 1,
(PID.TID 0000.0001) > DIACOC=     1, 0, 0, 0, 0, 2,
(PID.TID 0000.0001) > DIAZOTROPH= 0, 0, 0, 0, 1, 0,
(PID.TID 0000.0001) > NSOURCE=    3, 3, 3, 1, 0, 3,
(PID.TID 0000.0001) > wsink(5)= 0.0,
(PID.TID 0000.0001) > palat(5,7)= 0.1350,
(PID.TID 0000.0001) > palat(5,8)= 0.675,
(PID.TID 0000.0001) > morttempfuncmin= 8*0.0,
(PID.TID 0000.0001) > mort2tempfuncmin= 8*0.0,
(PID.TID 0000.0001) > /
(PID.TID 0000.0001) 
(PID.TID 0000.0001)  ===================================
(PID.TID 0000.0001) ------------------------------------------------------------
(PID.TID 0000.0001) DIAGNOSTICS_SET_LEVELS: done
(PID.TID 0000.0001)  Total Nb of available Diagnostics: ndiagt=   688
(PID.TID 0000.0001)  write list of available Diagnostics to file: available_diagnostics.log
(PID.TID 0000.0001) SETDIAG: Allocate 35 x  1 Levels for Diagnostic #   156 TRAC01
(PID.TID 0000.0001) SETDIAG: Allocate 35 x  1 Levels for Diagnostic #   169 TRAC02
(PID.TID 0000.0001) SETDIAG: Allocate 35 x  1 Levels for Diagnostic #   182 TRAC03
(PID.TID 0000.0001) SETDIAG: Allocate 35 x  1 Levels for Diagnostic #   195 TRAC04
(PID.TID 0000.0001) SETDIAG: Allocate 35 x  1 Levels for Diagnostic #   208 TRAC05
(PID.TID 0000.0001) SETDIAG: Allocate 35 x  1 Levels for Diagnostic #   221 TRAC06
(PID.TID 0000.0001) SETDIAG: Allocate 35 x  1 Levels for Diagnostic #   234 TRAC07
(PID.TID 0000.0001) SETDIAG: Allocate 35 x  1 Levels for Diagnostic #   247 TRAC08
(PID.TID 0000.0001) SETDIAG: Allocate 35 x  1 Levels for Diagnostic #   260 TRAC09
(PID.TID 0000.0001) SETDIAG: Allocate 35 x  1 Levels for Diagnostic #   273 TRAC10
(PID.TID 0000.0001) SETDIAG: Allocate 35 x  1 Levels for Diagnostic #   286 TRAC11
(PID.TID 0000.0001) SETDIAG: Allocate 35 x  1 Levels for Diagnostic #   299 TRAC12
(PID.TID 0000.0001) SETDIAG: Allocate 35 x  1 Levels for Diagnostic #   312 TRAC13
(PID.TID 0000.0001) SETDIAG: Allocate 35 x  1 Levels for Diagnostic #   325 TRAC14
(PID.TID 0000.0001) SETDIAG: Allocate 35 x  1 Levels for Diagnostic #   338 TRAC15
(PID.TID 0000.0001) SETDIAG: Allocate 35 x  1 Levels for Diagnostic #   351 TRAC16
(PID.TID 0000.0001) SETDIAG: Allocate 35 x  1 Levels for Diagnostic #   364 TRAC17
(PID.TID 0000.0001) SETDIAG: Allocate 35 x  1 Levels for Diagnostic #   377 TRAC18
(PID.TID 0000.0001) SETDIAG: Allocate 35 x  1 Levels for Diagnostic #   390 TRAC19
(PID.TID 0000.0001) SETDIAG: Allocate 35 x  1 Levels for Diagnostic #   403 TRAC20
(PID.TID 0000.0001) SETDIAG: Allocate 35 x  1 Levels for Diagnostic #   416 TRAC21
(PID.TID 0000.0001) SETDIAG: Allocate 35 x  1 Levels for Diagnostic #   429 TRAC22
(PID.TID 0000.0001) SETDIAG: Allocate 35 x  1 Levels for Diagnostic #   442 TRAC23
(PID.TID 0000.0001) SETDIAG: Allocate 35 x  1 Levels for Diagnostic #   455 TRAC24
(PID.TID 0000.0001) SETDIAG: Allocate 35 x  1 Levels for Diagnostic #   468 TRAC25
(PID.TID 0000.0001) SETDIAG: Allocate 35 x  1 Levels for Diagnostic #   481 TRAC26
(PID.TID 0000.0001) SETDIAG: Allocate 35 x  1 Levels for Diagnostic #   494 TRAC27
(PID.TID 0000.0001) SETDIAG: Allocate 35 x  1 Levels for Diagnostic #   507 TRAC28
(PID.TID 0000.0001) SETDIAG: Allocate 35 x  1 Levels for Diagnostic #   520 TRAC29
(PID.TID 0000.0001) SETDIAG: Allocate 35 x  1 Levels for Diagnostic #   533 TRAC30
(PID.TID 0000.0001) SETDIAG: Allocate 35 x  1 Levels for Diagnostic #   589 PARF
(PID.TID 0000.0001) SETDIAG: Allocate 35 x  1 Levels for Diagnostic #   586 atten
(PID.TID 0000.0001) SETDIAG: Allocate 35 x  1 Levels for Diagnostic #   588 surfPAR
(PID.TID 0000.0001) SETDIAG: Allocate 35 x  1 Levels for Diagnostic #   587 exfPAR
(PID.TID 0000.0001)   space allocated for all diagnostics:    1190 levels
(PID.TID 0000.0001) DIAGNOSTICS_SET_POINTERS: Set levels for Outp.Stream: darwin
(PID.TID 0000.0001)  Levels:       1.   2.   3.   4.   5.   6.   7.   8.   9.  10.  11.  12.  13.  14.  15.  16.  17.  18.  19.  20.
(PID.TID 0000.0001)  Levels:      21.  22.  23.  24.  25.  26.  27.  28.  29.  30.  31.  32.  33.  34.  35.
(PID.TID 0000.0001) DIAGNOSTICS_SET_POINTERS: done
(PID.TID 0000.0001) ------------------------------------------------------------
(PID.TID 0000.0001) DIAGSTATS_SET_REGIONS: define no region
(PID.TID 0000.0001) ------------------------------------------------------------
(PID.TID 0000.0001)   space allocated for all stats-diags:       0 levels
(PID.TID 0000.0001) DIAGSTATS_SET_POINTERS: done
(PID.TID 0000.0001) ------------------------------------------------------------
(PID.TID 0000.0001) %MON fCori_max                    =  -1.0222233858954729E-04
(PID.TID 0000.0001) %MON fCori_min                    =  -1.0222233858954729E-04
(PID.TID 0000.0001) %MON fCori_mean                   =  -1.0222233858954729E-04
(PID.TID 0000.0001) %MON fCori_sd                     =   0.0000000000000000E+00
(PID.TID 0000.0001) %MON fCoriG_max                   =  -1.0312619976227580E-04
(PID.TID 0000.0001) %MON fCoriG_min                   =  -1.0312619976227580E-04
(PID.TID 0000.0001) %MON fCoriG_mean                  =  -1.0312619976227580E-04
(PID.TID 0000.0001) %MON fCoriG_sd                    =   0.0000000000000000E+00
(PID.TID 0000.0001) %MON fCoriCos_max                 =   1.0402220747562310E-04
(PID.TID 0000.0001) %MON fCoriCos_min                 =   1.0402220747562310E-04
(PID.TID 0000.0001) %MON fCoriCos_mean                =   1.0402220747562310E-04
(PID.TID 0000.0001) %MON fCoriCos_sd                  =   0.0000000000000000E+00
(PID.TID 0000.0001) INI_CG2D: CG2D normalisation factor =  2.0407738173224081E-04
(PID.TID 0000.0001) 
(PID.TID 0000.0001) // =======================================================
(PID.TID 0000.0001) // Model configuration
(PID.TID 0000.0001) // =======================================================
(PID.TID 0000.0001) //
(PID.TID 0000.0001) // "Physical" paramters ( PARM01 in namelist )
(PID.TID 0000.0001) //
(PID.TID 0000.0001) buoyancyRelation = /* Type of relation to get Buoyancy */
(PID.TID 0000.0001)               'OCEANIC'
(PID.TID 0000.0001)     ;
(PID.TID 0000.0001) fluidIsAir   =  /* fluid major constituent is Air */
(PID.TID 0000.0001)                   F
(PID.TID 0000.0001)     ;
(PID.TID 0000.0001) fluidIsWater =  /* fluid major constituent is Water */
(PID.TID 0000.0001)                   T
(PID.TID 0000.0001)     ;
(PID.TID 0000.0001) usingPCoords =  /* use p (or p*) vertical coordinate */
(PID.TID 0000.0001)                   F
(PID.TID 0000.0001)     ;
(PID.TID 0000.0001) usingZCoords =  /* use z (or z*) vertical coordinate */
(PID.TID 0000.0001)                   T
(PID.TID 0000.0001)     ;
(PID.TID 0000.0001) tRef =   /* Reference temperature profile ( oC or K ) */
(PID.TID 0000.0001)                 2.650000000000000E+01,      /* K =  1 */
(PID.TID 0000.0001)                 2.610000000000000E+01,      /* K =  2 */
(PID.TID 0000.0001)                 2.600000000000000E+01,      /* K =  3 */
(PID.TID 0000.0001)                 2.550000000000000E+01,      /* K =  4 */
(PID.TID 0000.0001)                 2.540000000000000E+01,      /* K =  5 */
(PID.TID 0000.0001)                 2.490000000000000E+01,      /* K =  6 */
(PID.TID 0000.0001)                 2.450000000000000E+01,      /* K =  7 */
(PID.TID 0000.0001)                 2.400000000000000E+01,      /* K =  8 */
(PID.TID 0000.0001)                 2.370000000000000E+01,      /* K =  9 */
(PID.TID 0000.0001)                 2.330000000000000E+01,      /* K = 10 */
(PID.TID 0000.0001)                 2.310000000000000E+01,      /* K = 11 */
(PID.TID 0000.0001)                 2.280000000000000E+01,      /* K = 12 */
(PID.TID 0000.0001)                 2.250000000000000E+01,      /* K = 13 */
(PID.TID 0000.0001)                 2.210000000000000E+01,      /* K = 14 */
(PID.TID 0000.0001)                 2.160000000000000E+01,      /* K = 15 */
(PID.TID 0000.0001)                 2.060000000000000E+01,      /* K = 16 */
(PID.TID 0000.0001)                 1.950000000000000E+01,      /* K = 17 */
(PID.TID 0000.0001)                 1.840000000000000E+01,      /* K = 18 */
(PID.TID 0000.0001)                 1.730000000000000E+01,      /* K = 19 */
(PID.TID 0000.0001)                 1.660000000000000E+01,      /* K = 20 */
(PID.TID 0000.0001)                 1.550000000000000E+01,      /* K = 21 */
(PID.TID 0000.0001)                 1.460000000000000E+01,      /* K = 22 */
(PID.TID 0000.0001)                 1.380000000000000E+01,      /* K = 23 */
(PID.TID 0000.0001)                 1.310000000000000E+01,      /* K = 24 */
(PID.TID 0000.0001)                 1.160000000000000E+01,      /* K = 25 */
(PID.TID 0000.0001)                 1.010000000000000E+01,      /* K = 26 */
(PID.TID 0000.0001)                 7.700000000000000E+00,      /* K = 27 */
(PID.TID 0000.0001)                 5.300000000000000E+00,      /* K = 28 */
(PID.TID 0000.0001)                 4.100000000000000E+00,      /* K = 29 */
(PID.TID 0000.0001)     2 @  3.700000000000000E+00,             /* K = 30: 31 */
(PID.TID 0000.0001)                 3.400000000000000E+00,      /* K = 32 */
(PID.TID 0000.0001)                 3.000000000000000E+00,      /* K = 33 */
(PID.TID 0000.0001)                 2.800000000000000E+00,      /* K = 34 */
(PID.TID 0000.0001)                 2.600000000000000E+00       /* K = 35 */
(PID.TID 0000.0001)     ;
(PID.TID 0000.0001) sRef =   /* Reference salinity profile ( psu ) */
(PID.TID 0000.0001)    35 @  3.500000000000000E+01              /* K =  1: 35 */
(PID.TID 0000.0001)     ;
(PID.TID 0000.0001) viscAh  =   /* Lateral eddy viscosity ( m^2/s ) */
(PID.TID 0000.0001)                 0.000000000000000E+00
(PID.TID 0000.0001)     ;
(PID.TID 0000.0001) viscAhMax = /* Maximum lateral eddy viscosity ( m^2/s ) */
(PID.TID 0000.0001)                 1.000000000000000E+21
(PID.TID 0000.0001)     ;
(PID.TID 0000.0001) viscAhGrid = /* Grid dependent lateral eddy viscosity ( non-dim. ) */
(PID.TID 0000.0001)                 0.000000000000000E+00
(PID.TID 0000.0001)     ;
(PID.TID 0000.0001) useFullLeith = /* Use Full Form of Leith Viscosity on/off flag*/
(PID.TID 0000.0001)                   F
(PID.TID 0000.0001)     ;
(PID.TID 0000.0001) useStrainTensionVisc= /* Use StrainTension Form of Viscous Operator flag*/
(PID.TID 0000.0001)                   F
(PID.TID 0000.0001)     ;
(PID.TID 0000.0001) useAreaViscLength = /* Use area for visc length instead of geom. mean*/
(PID.TID 0000.0001)                   F
(PID.TID 0000.0001)     ;
(PID.TID 0000.0001) viscC2leith = /* Leith harmonic visc. factor (on grad(vort),non-dim.) */
(PID.TID 0000.0001)                 0.000000000000000E+00
(PID.TID 0000.0001)     ;
(PID.TID 0000.0001) viscC2leithD = /* Leith harmonic viscosity factor (on grad(div),non-dim.)*/
(PID.TID 0000.0001)                 0.000000000000000E+00
(PID.TID 0000.0001)     ;
(PID.TID 0000.0001) viscC2smag = /* Smagorinsky harmonic viscosity factor (non-dim.) */
(PID.TID 0000.0001)                 0.000000000000000E+00
(PID.TID 0000.0001)     ;
(PID.TID 0000.0001) viscA4  =   /* Lateral biharmonic viscosity ( m^4/s ) */
(PID.TID 0000.0001)                 0.000000000000000E+00
(PID.TID 0000.0001)     ;
(PID.TID 0000.0001) viscA4Max = /* Maximum biharmonic viscosity ( m^2/s ) */
(PID.TID 0000.0001)                 1.000000000000000E+21
(PID.TID 0000.0001)     ;
(PID.TID 0000.0001) viscA4Grid = /* Grid dependent biharmonic viscosity ( non-dim. ) */
(PID.TID 0000.0001)                 0.000000000000000E+00
(PID.TID 0000.0001)     ;
(PID.TID 0000.0001) viscC4leith = /* Leith biharm viscosity factor (on grad(vort), non-dim.)*/
(PID.TID 0000.0001)                 0.000000000000000E+00
(PID.TID 0000.0001)     ;
(PID.TID 0000.0001) viscC4leithD = /* Leith biharm viscosity factor (on grad(div), non-dim.) */
(PID.TID 0000.0001)                 0.000000000000000E+00
(PID.TID 0000.0001)     ;
(PID.TID 0000.0001) viscC4Smag = /* Smagorinsky biharm viscosity factor (non-dim) */
(PID.TID 0000.0001)                 0.000000000000000E+00
(PID.TID 0000.0001)     ;
(PID.TID 0000.0001) no_slip_sides =  /* Viscous BCs: No-slip sides */
(PID.TID 0000.0001)                   F
(PID.TID 0000.0001)     ;
(PID.TID 0000.0001) sideDragFactor = /* side-drag scaling factor (non-dim) */
(PID.TID 0000.0001)                 2.000000000000000E+00
(PID.TID 0000.0001)     ;
(PID.TID 0000.0001) viscArNr = /* vertical profile of vertical viscosity ( m^2/s )*/
(PID.TID 0000.0001)    35 @  0.000000000000000E+00              /* K =  1: 35 */
(PID.TID 0000.0001)     ;
(PID.TID 0000.0001) no_slip_bottom =  /* Viscous BCs: No-slip bottom */
(PID.TID 0000.0001)                   T
(PID.TID 0000.0001)     ;
(PID.TID 0000.0001) bottomDragLinear = /* linear bottom-drag coefficient ( m/s ) */
(PID.TID 0000.0001)                 0.000000000000000E+00
(PID.TID 0000.0001)     ;
(PID.TID 0000.0001) bottomDragQuadratic = /* quadratic bottom-drag coefficient (-) */
(PID.TID 0000.0001)                 0.000000000000000E+00
(PID.TID 0000.0001)     ;
(PID.TID 0000.0001) diffKhT =   /* Laplacian diffusion of heat laterally ( m^2/s ) */
(PID.TID 0000.0001)                 1.000000000000000E+02
(PID.TID 0000.0001)     ;
(PID.TID 0000.0001) diffK4T =   /* Biharmonic diffusion of heat laterally ( m^4/s ) */
(PID.TID 0000.0001)                 0.000000000000000E+00
(PID.TID 0000.0001)     ;
(PID.TID 0000.0001) diffKhS =   /* Laplacian diffusion of salt laterally ( m^2/s ) */
(PID.TID 0000.0001)                 0.000000000000000E+00
(PID.TID 0000.0001)     ;
(PID.TID 0000.0001) diffK4S =   /* Biharmonic diffusion of salt laterally ( m^4/s ) */
(PID.TID 0000.0001)                 0.000000000000000E+00
(PID.TID 0000.0001)     ;
(PID.TID 0000.0001) diffKrNrT = /* vertical profile of vertical diffusion of Temp ( m^2/s )*/
(PID.TID 0000.0001)    35 @  1.000000000000000E-04              /* K =  1: 35 */
(PID.TID 0000.0001)     ;
(PID.TID 0000.0001) diffKrNrS = /* vertical profile of vertical diffusion of Salt ( m^2/s )*/
(PID.TID 0000.0001)    35 @  0.000000000000000E+00              /* K =  1: 35 */
(PID.TID 0000.0001)     ;
(PID.TID 0000.0001) diffKrBL79surf = /* Surface diffusion for Bryan and Lewis 79 ( m^2/s ) */
(PID.TID 0000.0001)                 0.000000000000000E+00
(PID.TID 0000.0001)     ;
(PID.TID 0000.0001) diffKrBL79deep = /* Deep diffusion for Bryan and Lewis 1979 ( m^2/s ) */
(PID.TID 0000.0001)                 0.000000000000000E+00
(PID.TID 0000.0001)     ;
(PID.TID 0000.0001) diffKrBL79scl = /* Depth scale for Bryan and Lewis 1979 ( m ) */
(PID.TID 0000.0001)                 2.000000000000000E+02
(PID.TID 0000.0001)     ;
(PID.TID 0000.0001) diffKrBL79Ho = /* Turning depth for Bryan and Lewis 1979 ( m ) */
(PID.TID 0000.0001)                -2.000000000000000E+03
(PID.TID 0000.0001)     ;
(PID.TID 0000.0001) ivdc_kappa = /* Implicit Vertical Diffusivity for Convection ( m^2/s) */
(PID.TID 0000.0001)                 0.000000000000000E+00
(PID.TID 0000.0001)     ;
(PID.TID 0000.0001) hMixCriteria=  /* Criteria for mixed-layer diagnostic */
(PID.TID 0000.0001)                -8.000000000000000E-01
(PID.TID 0000.0001)     ;
(PID.TID 0000.0001) dRhoSmall =  /* Parameter for mixed-layer diagnostic */
(PID.TID 0000.0001)                 1.000000000000000E-06
(PID.TID 0000.0001)     ;
(PID.TID 0000.0001) hMixSmooth=  /* Smoothing parameter for mixed-layer diagnostic */
(PID.TID 0000.0001)                 0.000000000000000E+00
(PID.TID 0000.0001)     ;
(PID.TID 0000.0001) eosType =  /* Type of Equation of State */
(PID.TID 0000.0001)               'JMD95Z'
(PID.TID 0000.0001)     ;
(PID.TID 0000.0001) celsius2K = /* 0 degree Celsius converted to Kelvin ( K ) */
(PID.TID 0000.0001)                 2.731500000000000E+02
(PID.TID 0000.0001)     ;
(PID.TID 0000.0001) rhoConst  = /* Reference density (Boussinesq)  ( kg/m^3 ) */
(PID.TID 0000.0001)                 9.998000000000000E+02
(PID.TID 0000.0001)     ;
(PID.TID 0000.0001) rhoFacC = /* normalized Reference density @ cell-Center (-) */
(PID.TID 0000.0001)    35 @  1.000000000000000E+00              /* K =  1: 35 */
(PID.TID 0000.0001)     ;
(PID.TID 0000.0001) rhoFacF = /* normalized Reference density @ W-Interface (-) */
(PID.TID 0000.0001)    36 @  1.000000000000000E+00              /* K =  1: 36 */
(PID.TID 0000.0001)     ;
(PID.TID 0000.0001) rhoConstFresh = /* Fresh-water reference density ( kg/m^3 ) */
(PID.TID 0000.0001)                 9.998000000000000E+02
(PID.TID 0000.0001)     ;
(PID.TID 0000.0001) gravity =   /* Gravitational acceleration ( m/s^2 ) */
(PID.TID 0000.0001)                 9.810000000000000E+00
(PID.TID 0000.0001)     ;
(PID.TID 0000.0001) gBaro =   /* Barotropic gravity ( m/s^2 ) */
(PID.TID 0000.0001)                 9.810000000000000E+00
(PID.TID 0000.0001)     ;
(PID.TID 0000.0001) rotationPeriod =   /* Rotation Period ( s ) */
(PID.TID 0000.0001)                 8.616400000000000E+04
(PID.TID 0000.0001)     ;
(PID.TID 0000.0001) omega =   /* Angular velocity ( rad/s ) */
(PID.TID 0000.0001)                 7.292123516990375E-05
(PID.TID 0000.0001)     ;
(PID.TID 0000.0001) f0 =   /* Reference coriolis parameter ( 1/s ) */
(PID.TID 0000.0001)                 1.000000000000000E-04
(PID.TID 0000.0001)     ;
(PID.TID 0000.0001) beta =   /* Beta ( 1/(m.s) ) */
(PID.TID 0000.0001)                 9.999999999999999E-12
(PID.TID 0000.0001)     ;
(PID.TID 0000.0001) fPrime =   /* Second coriolis parameter ( 1/s ) */
(PID.TID 0000.0001)                 0.000000000000000E+00
(PID.TID 0000.0001)     ;
(PID.TID 0000.0001) rigidLid =   /* Rigid lid on/off flag */
(PID.TID 0000.0001)                   T
(PID.TID 0000.0001)     ;
(PID.TID 0000.0001) implicitFreeSurface =   /* Implicit free surface on/off flag */
(PID.TID 0000.0001)                   F
(PID.TID 0000.0001)     ;
(PID.TID 0000.0001) freeSurfFac =   /* Implicit free surface factor */
(PID.TID 0000.0001)                 0.000000000000000E+00
(PID.TID 0000.0001)     ;
(PID.TID 0000.0001) implicSurfPress =  /* Surface Pressure implicit factor (0-1)*/
(PID.TID 0000.0001)                 1.000000000000000E+00
(PID.TID 0000.0001)     ;
(PID.TID 0000.0001) implicDiv2Dflow =  /* Barot. Flow Div. implicit factor (0-1)*/
(PID.TID 0000.0001)                 1.000000000000000E+00
(PID.TID 0000.0001)     ;
(PID.TID 0000.0001) uniformLin_PhiSurf = /* use uniform Bo_surf on/off flag*/
(PID.TID 0000.0001)                   T
(PID.TID 0000.0001)     ;
(PID.TID 0000.0001) uniformFreeSurfLev = /* free-surface level-index is uniform */
(PID.TID 0000.0001)                   T
(PID.TID 0000.0001)     ;
(PID.TID 0000.0001) hFacMin =   /* minimum partial cell factor (hFac) */
(PID.TID 0000.0001)                 1.000000000000000E+00
(PID.TID 0000.0001)     ;
(PID.TID 0000.0001) hFacMinDr = /* minimum partial cell thickness ( m) */
(PID.TID 0000.0001)                 1.000000000000000E+00
(PID.TID 0000.0001)     ;
(PID.TID 0000.0001) exactConserv =  /* Exact Volume Conservation on/off flag*/
(PID.TID 0000.0001)                   F
(PID.TID 0000.0001)     ;
(PID.TID 0000.0001) linFSConserveTr = /* Tracer correction for Lin Free Surface on/off flag*/
(PID.TID 0000.0001)                   F
(PID.TID 0000.0001)     ;
(PID.TID 0000.0001) nonlinFreeSurf = /* Non-linear Free Surf. options (-1,0,1,2,3)*/
(PID.TID 0000.0001)                       0
(PID.TID 0000.0001)      -1,0= Off ; 1,2,3= On, 2=+rescale gU,gV, 3=+update cg2d solv.
(PID.TID 0000.0001)     ;
(PID.TID 0000.0001) hFacInf =   /* lower threshold for hFac (nonlinFreeSurf only)*/
(PID.TID 0000.0001)                 2.000000000000000E-01
(PID.TID 0000.0001)     ;
(PID.TID 0000.0001) hFacSup =   /* upper threshold for hFac (nonlinFreeSurf only)*/
(PID.TID 0000.0001)                 2.000000000000000E+00
(PID.TID 0000.0001)     ;
(PID.TID 0000.0001) select_rStar = /* r* Vertical coord. options (=0 r coord.; >0 uses r*)*/
(PID.TID 0000.0001)                       0
(PID.TID 0000.0001)     ;
(PID.TID 0000.0001) useRealFreshWaterFlux = /* Real Fresh Water Flux on/off flag*/
(PID.TID 0000.0001)                   F
(PID.TID 0000.0001)     ;
(PID.TID 0000.0001) temp_EvPrRn = /* Temp. of Evap/Prec/R (UNSET=use local T)(oC)*/
(PID.TID 0000.0001)                 1.234567000000000E+05
(PID.TID 0000.0001)     ;
(PID.TID 0000.0001) salt_EvPrRn = /* Salin. of Evap/Prec/R (UNSET=use local S)(psu)*/
(PID.TID 0000.0001)                 0.000000000000000E+00
(PID.TID 0000.0001)     ;
(PID.TID 0000.0001) selectAddFluid = /* option for mass source/sink of fluid (=0: off) */
(PID.TID 0000.0001)                       0
(PID.TID 0000.0001)     ;
(PID.TID 0000.0001) temp_addMass = /* Temp. of addMass array (UNSET=use local T)(oC)*/
(PID.TID 0000.0001)                 1.234567000000000E+05
(PID.TID 0000.0001)     ;
(PID.TID 0000.0001) salt_addMass = /* Salin. of addMass array (UNSET=use local S)(psu)*/
(PID.TID 0000.0001)                 0.000000000000000E+00
(PID.TID 0000.0001)     ;
(PID.TID 0000.0001) convertFW2Salt = /* convert F.W. Flux to Salt Flux (-1=use local S)(psu)*/
(PID.TID 0000.0001)                 3.500000000000000E+01
(PID.TID 0000.0001)     ;
(PID.TID 0000.0001) use3Dsolver = /* use 3-D pressure solver on/off flag */
(PID.TID 0000.0001)                   F
(PID.TID 0000.0001)     ;
(PID.TID 0000.0001) nonHydrostatic =  /* Non-Hydrostatic on/off flag */
(PID.TID 0000.0001)                   F
(PID.TID 0000.0001)     ;
(PID.TID 0000.0001) nh_Am2 = /* Non-Hydrostatic terms scaling factor */
(PID.TID 0000.0001)                 1.000000000000000E+00
(PID.TID 0000.0001)     ;
(PID.TID 0000.0001) implicitNHPress = /* Non-Hyd Pressure implicit factor (0-1)*/
(PID.TID 0000.0001)                 1.000000000000000E+00
(PID.TID 0000.0001)     ;
(PID.TID 0000.0001) selectNHfreeSurf = /* Non-Hyd (free-)Surface option */
(PID.TID 0000.0001)                       0
(PID.TID 0000.0001)     ;
(PID.TID 0000.0001) quasiHydrostatic = /* Quasi-Hydrostatic on/off flag */
(PID.TID 0000.0001)                   F
(PID.TID 0000.0001)     ;
(PID.TID 0000.0001) calc_wVelocity = /* vertical velocity calculation on/off flag */
(PID.TID 0000.0001)                   F
(PID.TID 0000.0001)     ;
(PID.TID 0000.0001) momStepping =  /* Momentum equation on/off flag */
(PID.TID 0000.0001)                   F
(PID.TID 0000.0001)     ;
(PID.TID 0000.0001) vectorInvariantMomentum= /* Vector-Invariant Momentum on/off */
(PID.TID 0000.0001)                   F
(PID.TID 0000.0001)     ;
(PID.TID 0000.0001) momAdvection =  /* Momentum advection on/off flag */
(PID.TID 0000.0001)                   F
(PID.TID 0000.0001)     ;
(PID.TID 0000.0001) momViscosity =  /* Momentum viscosity on/off flag */
(PID.TID 0000.0001)                   F
(PID.TID 0000.0001)     ;
(PID.TID 0000.0001) momImplVertAdv= /* Momentum implicit vert. advection on/off*/
(PID.TID 0000.0001)                   F
(PID.TID 0000.0001)     ;
(PID.TID 0000.0001) implicitViscosity = /* Implicit viscosity on/off flag */
(PID.TID 0000.0001)                   F
(PID.TID 0000.0001)     ;
(PID.TID 0000.0001) metricTerms =  /* metric-Terms on/off flag */
(PID.TID 0000.0001)                   T
(PID.TID 0000.0001)     ;
(PID.TID 0000.0001) useNHMTerms = /* Non-Hydrostatic Metric-Terms on/off */
(PID.TID 0000.0001)                   F
(PID.TID 0000.0001)     ;
(PID.TID 0000.0001) selectCoriMap = /* Coriolis Map options (0,1,2,3)*/
(PID.TID 0000.0001)                       2
(PID.TID 0000.0001)     0= f-Plane ; 1= Beta-Plane ; 2= Spherical ; 3= read from file
(PID.TID 0000.0001)     ;
(PID.TID 0000.0001) use3dCoriolis = /* 3-D Coriolis on/off flag */
(PID.TID 0000.0001)                   F
(PID.TID 0000.0001)     ;
(PID.TID 0000.0001) useCoriolis =  /* Coriolis on/off flag */
(PID.TID 0000.0001)                   F
(PID.TID 0000.0001)     ;
(PID.TID 0000.0001) useCDscheme =  /* CD scheme on/off flag */
(PID.TID 0000.0001)                   F
(PID.TID 0000.0001)     ;
(PID.TID 0000.0001) useEnergyConservingCoriolis= /* Flx-Form Coriolis scheme flag */
(PID.TID 0000.0001)                   F
(PID.TID 0000.0001)     ;
(PID.TID 0000.0001) useJamartWetPoints= /* Coriolis WetPoints method flag */
(PID.TID 0000.0001)                   F
(PID.TID 0000.0001)     ;
(PID.TID 0000.0001) useJamartMomAdv= /* V.I Non-linear terms Jamart flag */
(PID.TID 0000.0001)                   F
(PID.TID 0000.0001)     ;
(PID.TID 0000.0001) useAbsVorticity= /* V.I Works with f+zeta in Coriolis */
(PID.TID 0000.0001)                   F
(PID.TID 0000.0001)     ;
(PID.TID 0000.0001) selectVortScheme= /* V.I Scheme selector for Vorticity-Term */
(PID.TID 0000.0001)               123456789
(PID.TID 0000.0001)    = 0 : enstrophy (Shallow-Water Eq.) conserving scheme by Sadourny, JAS 75
(PID.TID 0000.0001)    = 1 : same as 0 with modified hFac
(PID.TID 0000.0001)    = 2 : energy conserving scheme (used by Sadourny in JAS 75 paper)
(PID.TID 0000.0001)    = 3 : energy (general) and enstrophy (2D, nonDiv.) conserving scheme
(PID.TID 0000.0001)          from Sadourny (Burridge & Haseler, ECMWF Rep.4, 1977)
(PID.TID 0000.0001)     ;
(PID.TID 0000.0001) upwindVorticity= /* V.I Upwind bias vorticity flag */
(PID.TID 0000.0001)                   F
(PID.TID 0000.0001)     ;
(PID.TID 0000.0001) highOrderVorticity= /* V.I High order vort. advect. flag */
(PID.TID 0000.0001)                   F
(PID.TID 0000.0001)     ;
(PID.TID 0000.0001) upwindShear= /* V.I Upwind vertical Shear advection flag */
(PID.TID 0000.0001)                   F
(PID.TID 0000.0001)     ;
(PID.TID 0000.0001) selectKEscheme= /* V.I Kinetic Energy scheme selector */
(PID.TID 0000.0001)                       0
(PID.TID 0000.0001)     ;
(PID.TID 0000.0001) momForcing =  /* Momentum forcing on/off flag */
(PID.TID 0000.0001)                   F
(PID.TID 0000.0001)     ;
(PID.TID 0000.0001) momPressureForcing =  /* Momentum pressure term on/off flag */
(PID.TID 0000.0001)                   F
(PID.TID 0000.0001)     ;
(PID.TID 0000.0001) implicitIntGravWave= /* Implicit Internal Gravity Wave flag */
(PID.TID 0000.0001)                   F
(PID.TID 0000.0001)     ;
(PID.TID 0000.0001) staggerTimeStep =    /* Stagger time stepping on/off flag */
(PID.TID 0000.0001)                   F
(PID.TID 0000.0001)     ;
(PID.TID 0000.0001) doResetHFactors = /* reset thickness factors @ each time-step */
(PID.TID 0000.0001)                   F
(PID.TID 0000.0001)     ;
(PID.TID 0000.0001) multiDimAdvection =  /* enable/disable Multi-Dim Advection */
(PID.TID 0000.0001)                   T
(PID.TID 0000.0001)     ;
(PID.TID 0000.0001) useMultiDimAdvec =   /* Multi-Dim Advection is/is-not used */
(PID.TID 0000.0001)                   T
(PID.TID 0000.0001)     ;
(PID.TID 0000.0001) implicitDiffusion = /* Implicit Diffusion on/off flag */
(PID.TID 0000.0001)                   T
(PID.TID 0000.0001)     ;
(PID.TID 0000.0001) tempStepping =  /* Temperature equation on/off flag */
(PID.TID 0000.0001)                   T
(PID.TID 0000.0001)     ;
(PID.TID 0000.0001) tempAdvection = /* Temperature advection on/off flag */
(PID.TID 0000.0001)                   T
(PID.TID 0000.0001)     ;
(PID.TID 0000.0001) tempImplVertAdv = /* Temp. implicit vert. advection on/off */
(PID.TID 0000.0001)                   F
(PID.TID 0000.0001)     ;
(PID.TID 0000.0001) tempForcing  =  /* Temperature forcing on/off flag */
(PID.TID 0000.0001)                   T
(PID.TID 0000.0001)     ;
(PID.TID 0000.0001) doThetaClimRelax = /* apply SST relaxation on/off flag */
(PID.TID 0000.0001)                   T
(PID.TID 0000.0001)     ;
(PID.TID 0000.0001) tempIsActiveTr = /* Temp. is a dynamically Active Tracer */
(PID.TID 0000.0001)                   F
(PID.TID 0000.0001)     ;
(PID.TID 0000.0001) saltStepping =  /* Salinity equation on/off flag */
(PID.TID 0000.0001)                   F
(PID.TID 0000.0001)     ;
(PID.TID 0000.0001) saltAdvection = /* Salinity advection on/off flag */
(PID.TID 0000.0001)                   F
(PID.TID 0000.0001)     ;
(PID.TID 0000.0001) saltImplVertAdv = /* Sali. implicit vert. advection on/off */
(PID.TID 0000.0001)                   F
(PID.TID 0000.0001)     ;
(PID.TID 0000.0001) saltForcing  =  /* Salinity forcing on/off flag */
(PID.TID 0000.0001)                   F
(PID.TID 0000.0001)     ;
(PID.TID 0000.0001) doSaltClimRelax = /* apply SSS relaxation on/off flag */
(PID.TID 0000.0001)                   F
(PID.TID 0000.0001)     ;
(PID.TID 0000.0001) saltIsActiveTr = /* Salt  is a dynamically Active Tracer */
(PID.TID 0000.0001)                   F
(PID.TID 0000.0001)     ;
(PID.TID 0000.0001)  readBinaryPrec = /* Precision used for reading binary files */
(PID.TID 0000.0001)                      32
(PID.TID 0000.0001)     ;
(PID.TID 0000.0001) writeBinaryPrec = /* Precision used for writing binary files */
(PID.TID 0000.0001)                      64
(PID.TID 0000.0001)     ;
(PID.TID 0000.0001)  globalFiles = /* write "global" (=not per tile) files */
(PID.TID 0000.0001)                   F
(PID.TID 0000.0001)     ;
(PID.TID 0000.0001)  useSingleCpuIO = /* only master MPI process does I/O */
(PID.TID 0000.0001)                   T
(PID.TID 0000.0001)     ;
(PID.TID 0000.0001) /* debLev[*]  : level of debug & auxiliary message printing */
(PID.TID 0000.0001) debLevZero =  0 ; /* level of disabled aux. msg printing */
(PID.TID 0000.0001)    debLevA =  1 ; /* level of minimum  aux. msg printing */
(PID.TID 0000.0001)    debLevB =  2 ; /* level of low aux. print (report read-file opening)*/
(PID.TID 0000.0001)    debLevC =  3 ; /* level of moderate debug prt (most pkgs debug msg) */
(PID.TID 0000.0001)    debLevD =  4 ; /* level of enhanced debug prt (add DEBUG_STATS prt) */
(PID.TID 0000.0001)    debLevE =  5 ; /* level of extensive debug printing */
(PID.TID 0000.0001) debugLevel =  /* select debug printing level */
(PID.TID 0000.0001)                       2
(PID.TID 0000.0001)     ;
(PID.TID 0000.0001) //
(PID.TID 0000.0001) // Elliptic solver(s) paramters ( PARM02 in namelist )
(PID.TID 0000.0001) //
(PID.TID 0000.0001) cg2dMaxIters =   /* Upper limit on 2d con. grad iterations  */
(PID.TID 0000.0001)                     300
(PID.TID 0000.0001)     ;
(PID.TID 0000.0001) cg2dChkResFreq =   /* 2d con. grad convergence test frequency */
(PID.TID 0000.0001)                       1
(PID.TID 0000.0001)     ;
(PID.TID 0000.0001) cg2dUseMinResSol= /* use cg2d last-iter(=0) / min-resid.(=1) solution */
(PID.TID 0000.0001)                       0
(PID.TID 0000.0001)     ;
(PID.TID 0000.0001) cg2dTargetResidual =   /* 2d con. grad target residual  */
(PID.TID 0000.0001)                 1.000000000000000E-07
(PID.TID 0000.0001)     ;
(PID.TID 0000.0001) cg2dTargetResWunit =   /* CG2d target residual [W units] */
(PID.TID 0000.0001)                -1.000000000000000E+00
(PID.TID 0000.0001)     ;
(PID.TID 0000.0001) cg2dPreCondFreq =   /* Freq. for updating cg2d preconditioner */
(PID.TID 0000.0001)                       1
(PID.TID 0000.0001)     ;
(PID.TID 0000.0001) useSRCGSolver =  /* use single reduction CG solver(s) */
(PID.TID 0000.0001)                   F
(PID.TID 0000.0001)     ;
(PID.TID 0000.0001) printResidualFreq = /* Freq. for printing CG residual */
(PID.TID 0000.0001)                       0
(PID.TID 0000.0001)     ;
(PID.TID 0000.0001) //
(PID.TID 0000.0001) // Time stepping paramters ( PARM03 in namelist )
(PID.TID 0000.0001) //
(PID.TID 0000.0001) deltaTMom =   /* Momentum equation timestep ( s ) */
(PID.TID 0000.0001)                 3.600000000000000E+03
(PID.TID 0000.0001)     ;
(PID.TID 0000.0001) deltaTFreeSurf = /* FreeSurface equation timestep ( s ) */
(PID.TID 0000.0001)                 3.600000000000000E+03
(PID.TID 0000.0001)     ;
(PID.TID 0000.0001) dTtracerLev =  /* Tracer equation timestep ( s ) */
(PID.TID 0000.0001)    35 @  3.600000000000000E+03              /* K =  1: 35 */
(PID.TID 0000.0001)     ;
(PID.TID 0000.0001) deltaTClock  =   /* Model clock timestep ( s ) */
(PID.TID 0000.0001)                 3.600000000000000E+03
(PID.TID 0000.0001)     ;
(PID.TID 0000.0001) cAdjFreq =   /* Convective adjustment interval ( s ) */
(PID.TID 0000.0001)                 0.000000000000000E+00
(PID.TID 0000.0001)     ;
(PID.TID 0000.0001) momForcingOutAB = /* =1: take Momentum Forcing out of Adams-Bash. stepping */
(PID.TID 0000.0001)                       0
(PID.TID 0000.0001)     ;
(PID.TID 0000.0001) tracForcingOutAB = /* =1: take T,S,pTr Forcing out of Adams-Bash. stepping */
(PID.TID 0000.0001)                       0
(PID.TID 0000.0001)     ;
(PID.TID 0000.0001) momDissip_In_AB = /* put Dissipation Tendency in Adams-Bash. stepping */
(PID.TID 0000.0001)                   T
(PID.TID 0000.0001)     ;
(PID.TID 0000.0001) doAB_onGtGs = /* apply AB on Tendencies (rather than on T,S)*/
(PID.TID 0000.0001)                   T
(PID.TID 0000.0001)     ;
(PID.TID 0000.0001) abEps =   /* Adams-Bashforth-2 stabilizing weight */
(PID.TID 0000.0001)                 1.000000000000000E-01
(PID.TID 0000.0001)     ;
(PID.TID 0000.0001) pickupStrictlyMatch= /* stop if pickup do not strictly match */
(PID.TID 0000.0001)                   T
(PID.TID 0000.0001)     ;
(PID.TID 0000.0001) nIter0   =   /* Run starting timestep number */
(PID.TID 0000.0001)                       0
(PID.TID 0000.0001)     ;
(PID.TID 0000.0001) nTimeSteps = /* Number of timesteps */
(PID.TID 0000.0001)                       4
(PID.TID 0000.0001)     ;
(PID.TID 0000.0001) nEndIter =   /* Run ending timestep number */
(PID.TID 0000.0001)                       4
(PID.TID 0000.0001)     ;
(PID.TID 0000.0001) baseTime =   /* Model base time ( s ) */
(PID.TID 0000.0001)                 0.000000000000000E+00
(PID.TID 0000.0001)     ;
(PID.TID 0000.0001) startTime =  /* Run start time ( s ) */
(PID.TID 0000.0001)                 0.000000000000000E+00
(PID.TID 0000.0001)     ;
(PID.TID 0000.0001) endTime  =   /* Integration ending time ( s ) */
(PID.TID 0000.0001)                 1.440000000000000E+04
(PID.TID 0000.0001)     ;
(PID.TID 0000.0001) pChkPtFreq = /* Permanent restart/pickup file interval ( s ) */
(PID.TID 0000.0001)                 3.110400000000000E+07
(PID.TID 0000.0001)     ;
(PID.TID 0000.0001) chkPtFreq  = /* Rolling restart/pickup file interval ( s ) */
(PID.TID 0000.0001)                 3.110400000000000E+07
(PID.TID 0000.0001)     ;
(PID.TID 0000.0001) pickup_write_mdsio =   /* Model IO flag. */
(PID.TID 0000.0001)                   T
(PID.TID 0000.0001)     ;
(PID.TID 0000.0001) pickup_read_mdsio =   /* Model IO flag. */
(PID.TID 0000.0001)                   T
(PID.TID 0000.0001)     ;
(PID.TID 0000.0001) pickup_write_mnc =   /* Model IO flag. */
(PID.TID 0000.0001)                   F
(PID.TID 0000.0001)     ;
(PID.TID 0000.0001) pickup_read_mnc =   /* Model IO flag. */
(PID.TID 0000.0001)                   F
(PID.TID 0000.0001)     ;
(PID.TID 0000.0001) pickup_write_immed =   /* Model IO flag. */
(PID.TID 0000.0001)                   F
(PID.TID 0000.0001)     ;
(PID.TID 0000.0001) writePickupAtEnd =   /* Model IO flag. */
(PID.TID 0000.0001)                   T
(PID.TID 0000.0001)     ;
(PID.TID 0000.0001) dumpFreq =   /* Model state write out interval ( s ). */
(PID.TID 0000.0001)                 3.600000000000000E+03
(PID.TID 0000.0001)     ;
(PID.TID 0000.0001) dumpInitAndLast= /* write out Initial & Last iter. model state */
(PID.TID 0000.0001)                   T
(PID.TID 0000.0001)     ;
(PID.TID 0000.0001) snapshot_mdsio =   /* Model IO flag. */
(PID.TID 0000.0001)                   F
(PID.TID 0000.0001)     ;
(PID.TID 0000.0001) snapshot_mnc =   /* Model IO flag. */
(PID.TID 0000.0001)                   T
(PID.TID 0000.0001)     ;
(PID.TID 0000.0001) monitorFreq =   /* Monitor output interval ( s ). */
(PID.TID 0000.0001)                 1.000000000000000E+00
(PID.TID 0000.0001)     ;
(PID.TID 0000.0001) monitorSelect = /* select group of variables to monitor */
(PID.TID 0000.0001)                       3
(PID.TID 0000.0001)     ;
(PID.TID 0000.0001) monitor_stdio =   /* Model IO flag. */
(PID.TID 0000.0001)                   T
(PID.TID 0000.0001)     ;
(PID.TID 0000.0001) monitor_mnc =   /* Model IO flag. */
(PID.TID 0000.0001)                   F
(PID.TID 0000.0001)     ;
(PID.TID 0000.0001) externForcingPeriod =   /* forcing period (s) */
(PID.TID 0000.0001)                 2.592000000000000E+06
(PID.TID 0000.0001)     ;
(PID.TID 0000.0001) externForcingCycle =   /* period of the cyle (s). */
(PID.TID 0000.0001)                 3.110400000000000E+07
(PID.TID 0000.0001)     ;
(PID.TID 0000.0001) tauThetaClimRelax =   /* relaxation time scale (s) */
(PID.TID 0000.0001)                 8.640000000000000E+04
(PID.TID 0000.0001)     ;
(PID.TID 0000.0001) tauSaltClimRelax =   /* relaxation time scale (s) */
(PID.TID 0000.0001)                 0.000000000000000E+00
(PID.TID 0000.0001)     ;
(PID.TID 0000.0001) latBandClimRelax =   /* max. Lat. where relaxation */
(PID.TID 0000.0001)                 1.800000000000000E+02
(PID.TID 0000.0001)     ;
(PID.TID 0000.0001) //
(PID.TID 0000.0001) // Gridding paramters ( PARM04 in namelist )
(PID.TID 0000.0001) //
(PID.TID 0000.0001) usingCartesianGrid = /* Cartesian coordinates flag ( True/False ) */
(PID.TID 0000.0001)                   F
(PID.TID 0000.0001)     ;
(PID.TID 0000.0001) usingCylindricalGrid = /* Cylindrical coordinates flag ( True/False ) */
(PID.TID 0000.0001)                   F
(PID.TID 0000.0001)     ;
(PID.TID 0000.0001) usingSphericalPolarGrid = /* Spherical coordinates flag ( True/False ) */
(PID.TID 0000.0001)                   T
(PID.TID 0000.0001)     ;
(PID.TID 0000.0001) usingCurvilinearGrid = /* Curvilinear coordinates flag ( True/False ) */
(PID.TID 0000.0001)                   F
(PID.TID 0000.0001)     ;
(PID.TID 0000.0001) selectSigmaCoord = /* Hybrid-Sigma Vert. Coordinate option */
(PID.TID 0000.0001)                       0
(PID.TID 0000.0001)     ;
(PID.TID 0000.0001) Ro_SeaLevel = /* r(1) ( units of r ==  m ) */
(PID.TID 0000.0001)                 0.000000000000000E+00
(PID.TID 0000.0001)     ;
(PID.TID 0000.0001) rSigmaBnd = /* r/sigma transition ( units of r ==  m ) */
(PID.TID 0000.0001)                 1.234567000000000E+05
(PID.TID 0000.0001)     ;
(PID.TID 0000.0001) rkSign =   /* index orientation relative to vertical coordinate */
(PID.TID 0000.0001)                -1.000000000000000E+00
(PID.TID 0000.0001)     ;
(PID.TID 0000.0001) gravitySign = /* gravity orientation relative to vertical coordinate */
(PID.TID 0000.0001)                -1.000000000000000E+00
(PID.TID 0000.0001)     ;
(PID.TID 0000.0001) mass2rUnit = /* convert mass per unit area [kg/m2] to r-units [m] */
(PID.TID 0000.0001)                 1.000200040008002E-03
(PID.TID 0000.0001)     ;
(PID.TID 0000.0001) rUnit2mass = /* convert r-units [m] to mass per unit area [kg/m2] */
(PID.TID 0000.0001)                 9.998000000000000E+02
(PID.TID 0000.0001)     ;
(PID.TID 0000.0001) drC =   /* C spacing ( units of r ) */
(PID.TID 0000.0001)                 5.000000000000000E+00,      /* K =  1 */
(PID.TID 0000.0001)    13 @  1.000000000000000E+01,             /* K =  2: 14 */
(PID.TID 0000.0001)                 1.250000000000000E+01,      /* K = 15 */
(PID.TID 0000.0001)     4 @  1.500000000000000E+01,             /* K = 16: 19 */
(PID.TID 0000.0001)                 1.750000000000000E+01,      /* K = 20 */
(PID.TID 0000.0001)     3 @  2.000000000000000E+01,             /* K = 21: 23 */
(PID.TID 0000.0001)                 3.500000000000000E+01,      /* K = 24 */
(PID.TID 0000.0001)                 5.000000000000000E+01,      /* K = 25 */
(PID.TID 0000.0001)                 7.500000000000000E+01,      /* K = 26 */
(PID.TID 0000.0001)                 1.250000000000000E+02,      /* K = 27 */
(PID.TID 0000.0001)                 1.500000000000000E+02,      /* K = 28 */
(PID.TID 0000.0001)                 1.750000000000000E+02,      /* K = 29 */
(PID.TID 0000.0001)                 2.500000000000000E+02,      /* K = 30 */
(PID.TID 0000.0001)                 3.500000000000000E+02,      /* K = 31 */
(PID.TID 0000.0001)     2 @  4.000000000000000E+02,             /* K = 32: 33 */
(PID.TID 0000.0001)                 4.500000000000000E+02,      /* K = 34 */
(PID.TID 0000.0001)                 5.000000000000000E+02       /* K = 35 */
(PID.TID 0000.0001)     ;
(PID.TID 0000.0001) drF =   /* W spacing ( units of r ) */
(PID.TID 0000.0001)    14 @  1.000000000000000E+01,             /* K =  1: 14 */
(PID.TID 0000.0001)     5 @  1.500000000000000E+01,             /* K = 15: 19 */
(PID.TID 0000.0001)     4 @  2.000000000000000E+01,             /* K = 20: 23 */
(PID.TID 0000.0001)     2 @  5.000000000000000E+01,             /* K = 24: 25 */
(PID.TID 0000.0001)                 1.000000000000000E+02,      /* K = 26 */
(PID.TID 0000.0001)     2 @  1.500000000000000E+02,             /* K = 27: 28 */
(PID.TID 0000.0001)                 2.000000000000000E+02,      /* K = 29 */
(PID.TID 0000.0001)                 3.000000000000000E+02,      /* K = 30 */
(PID.TID 0000.0001)     3 @  4.000000000000000E+02,             /* K = 31: 33 */
(PID.TID 0000.0001)     2 @  5.000000000000000E+02              /* K = 34: 35 */
(PID.TID 0000.0001)     ;
(PID.TID 0000.0001) delX = /* U spacing ( m - cartesian, degrees - spherical ) */
(PID.TID 0000.0001)                 1.000000000000000E+00       /* I =  1 */
(PID.TID 0000.0001)     ;
(PID.TID 0000.0001) delY = /* V spacing ( m - cartesian, degrees - spherical ) */
(PID.TID 0000.0001)                 1.000000000000000E+00       /* J =  1 */
(PID.TID 0000.0001)     ;
(PID.TID 0000.0001) xgOrigin = /* X-axis origin of West  edge (cartesian: m, lat-lon: deg) */
(PID.TID 0000.0001)                 0.000000000000000E+00
(PID.TID 0000.0001)     ;
(PID.TID 0000.0001) ygOrigin = /* Y-axis origin of South edge (cartesian: m, lat-lon: deg) */
(PID.TID 0000.0001)                -4.500000000000000E+01
(PID.TID 0000.0001)     ;
(PID.TID 0000.0001) rSphere =  /* Radius ( ignored - cartesian, m - spherical ) */
(PID.TID 0000.0001)                 6.370000000000000E+06
(PID.TID 0000.0001)     ;
(PID.TID 0000.0001) deepAtmosphere = /* Deep/Shallow Atmosphere flag (True/False) */
(PID.TID 0000.0001)                   F
(PID.TID 0000.0001)     ;
(PID.TID 0000.0001) xC =  /* xC(:,1,:,1) : P-point X coord ( deg. or m if cartesian) */
(PID.TID 0000.0001)                 5.000000000000000E-01       /* I =  1 */
(PID.TID 0000.0001)     ;
(PID.TID 0000.0001) yC =  /* yC(1,:,1,:) : P-point Y coord ( deg. or m if cartesian) */
(PID.TID 0000.0001)                -4.450000000000000E+01       /* J =  1 */
(PID.TID 0000.0001)     ;
(PID.TID 0000.0001) rcoord = /* P-point R coordinate (  units of r ) */
(PID.TID 0000.0001)                -5.000000000000000E+00,      /* K =  1 */
(PID.TID 0000.0001)                -1.500000000000000E+01,      /* K =  2 */
(PID.TID 0000.0001)                -2.500000000000000E+01,      /* K =  3 */
(PID.TID 0000.0001)                -3.500000000000000E+01,      /* K =  4 */
(PID.TID 0000.0001)                -4.500000000000000E+01,      /* K =  5 */
(PID.TID 0000.0001)                -5.500000000000000E+01,      /* K =  6 */
(PID.TID 0000.0001)                -6.500000000000000E+01,      /* K =  7 */
(PID.TID 0000.0001)                -7.500000000000000E+01,      /* K =  8 */
(PID.TID 0000.0001)                -8.500000000000000E+01,      /* K =  9 */
(PID.TID 0000.0001)                -9.500000000000000E+01,      /* K = 10 */
(PID.TID 0000.0001)                -1.050000000000000E+02,      /* K = 11 */
(PID.TID 0000.0001)                -1.150000000000000E+02,      /* K = 12 */
(PID.TID 0000.0001)                -1.250000000000000E+02,      /* K = 13 */
(PID.TID 0000.0001)                -1.350000000000000E+02,      /* K = 14 */
(PID.TID 0000.0001)                -1.475000000000000E+02,      /* K = 15 */
(PID.TID 0000.0001)                -1.625000000000000E+02,      /* K = 16 */
(PID.TID 0000.0001)                -1.775000000000000E+02,      /* K = 17 */
(PID.TID 0000.0001)                -1.925000000000000E+02,      /* K = 18 */
(PID.TID 0000.0001)                -2.075000000000000E+02,      /* K = 19 */
(PID.TID 0000.0001)                -2.250000000000000E+02,      /* K = 20 */
(PID.TID 0000.0001)                -2.450000000000000E+02,      /* K = 21 */
(PID.TID 0000.0001)                -2.650000000000000E+02,      /* K = 22 */
(PID.TID 0000.0001)                -2.850000000000000E+02,      /* K = 23 */
(PID.TID 0000.0001)                -3.200000000000000E+02,      /* K = 24 */
(PID.TID 0000.0001)                -3.700000000000000E+02,      /* K = 25 */
(PID.TID 0000.0001)                -4.450000000000000E+02,      /* K = 26 */
(PID.TID 0000.0001)                -5.700000000000000E+02,      /* K = 27 */
(PID.TID 0000.0001)                -7.200000000000000E+02,      /* K = 28 */
(PID.TID 0000.0001)                -8.950000000000000E+02,      /* K = 29 */
(PID.TID 0000.0001)                -1.145000000000000E+03,      /* K = 30 */
(PID.TID 0000.0001)                -1.495000000000000E+03,      /* K = 31 */
(PID.TID 0000.0001)                -1.895000000000000E+03,      /* K = 32 */
(PID.TID 0000.0001)                -2.295000000000000E+03,      /* K = 33 */
(PID.TID 0000.0001)                -2.745000000000000E+03,      /* K = 34 */
(PID.TID 0000.0001)                -3.245000000000000E+03       /* K = 35 */
(PID.TID 0000.0001)     ;
(PID.TID 0000.0001) rF =   /* W-Interf. R coordinate (  units of r ) */
(PID.TID 0000.0001)                 0.000000000000000E+00,      /* K =  1 */
(PID.TID 0000.0001)                -1.000000000000000E+01,      /* K =  2 */
(PID.TID 0000.0001)                -2.000000000000000E+01,      /* K =  3 */
(PID.TID 0000.0001)                -3.000000000000000E+01,      /* K =  4 */
(PID.TID 0000.0001)                -4.000000000000000E+01,      /* K =  5 */
(PID.TID 0000.0001)                -5.000000000000000E+01,      /* K =  6 */
(PID.TID 0000.0001)                -6.000000000000000E+01,      /* K =  7 */
(PID.TID 0000.0001)                -7.000000000000000E+01,      /* K =  8 */
(PID.TID 0000.0001)                -8.000000000000000E+01,      /* K =  9 */
(PID.TID 0000.0001)                -9.000000000000000E+01,      /* K = 10 */
(PID.TID 0000.0001)                -1.000000000000000E+02,      /* K = 11 */
(PID.TID 0000.0001)                -1.100000000000000E+02,      /* K = 12 */
(PID.TID 0000.0001)                -1.200000000000000E+02,      /* K = 13 */
(PID.TID 0000.0001)                -1.300000000000000E+02,      /* K = 14 */
(PID.TID 0000.0001)                -1.400000000000000E+02,      /* K = 15 */
(PID.TID 0000.0001)                -1.550000000000000E+02,      /* K = 16 */
(PID.TID 0000.0001)                -1.700000000000000E+02,      /* K = 17 */
(PID.TID 0000.0001)                -1.850000000000000E+02,      /* K = 18 */
(PID.TID 0000.0001)                -2.000000000000000E+02,      /* K = 19 */
(PID.TID 0000.0001)                -2.150000000000000E+02,      /* K = 20 */
(PID.TID 0000.0001)                -2.350000000000000E+02,      /* K = 21 */
(PID.TID 0000.0001)                -2.550000000000000E+02,      /* K = 22 */
(PID.TID 0000.0001)                -2.750000000000000E+02,      /* K = 23 */
(PID.TID 0000.0001)                -2.950000000000000E+02,      /* K = 24 */
(PID.TID 0000.0001)                -3.450000000000000E+02,      /* K = 25 */
(PID.TID 0000.0001)                -3.950000000000000E+02,      /* K = 26 */
(PID.TID 0000.0001)                -4.950000000000000E+02,      /* K = 27 */
(PID.TID 0000.0001)                -6.450000000000000E+02,      /* K = 28 */
(PID.TID 0000.0001)                -7.950000000000000E+02,      /* K = 29 */
(PID.TID 0000.0001)                -9.950000000000000E+02,      /* K = 30 */
(PID.TID 0000.0001)                -1.295000000000000E+03,      /* K = 31 */
(PID.TID 0000.0001)                -1.695000000000000E+03,      /* K = 32 */
(PID.TID 0000.0001)                -2.095000000000000E+03,      /* K = 33 */
(PID.TID 0000.0001)                -2.495000000000000E+03,      /* K = 34 */
(PID.TID 0000.0001)                -2.995000000000000E+03,      /* K = 35 */
(PID.TID 0000.0001)                -3.495000000000000E+03       /* K = 36 */
(PID.TID 0000.0001)     ;
(PID.TID 0000.0001) deepFacC = /* deep-model grid factor @ cell-Center (-) */
(PID.TID 0000.0001)    35 @  1.000000000000000E+00              /* K =  1: 35 */
(PID.TID 0000.0001)     ;
(PID.TID 0000.0001) deepFacF = /* deep-model grid factor @ W-Interface (-) */
(PID.TID 0000.0001)    36 @  1.000000000000000E+00              /* K =  1: 36 */
(PID.TID 0000.0001)     ;
(PID.TID 0000.0001) rVel2wUnit = /* convert units: rVel -> wSpeed (=1 if z-coord)*/
(PID.TID 0000.0001)    36 @  1.000000000000000E+00              /* K =  1: 36 */
(PID.TID 0000.0001)     ;
(PID.TID 0000.0001) wUnit2rVel = /* convert units: wSpeed -> rVel (=1 if z-coord)*/
(PID.TID 0000.0001)    36 @  1.000000000000000E+00              /* K =  1: 36 */
(PID.TID 0000.0001)     ;
(PID.TID 0000.0001) dBdrRef = /* Vertical grad. of reference buoyancy [(m/s/r)^2] */
(PID.TID 0000.0001)                 0.000000000000000E+00,      /* K =  1 */
(PID.TID 0000.0001)                 1.232578190459821E-04,      /* K =  2 */
(PID.TID 0000.0001)                 3.063957957303617E-05,      /* K =  3 */
(PID.TID 0000.0001)                 1.521320422054373E-04,      /* K =  4 */
(PID.TID 0000.0001)                 3.021271930223580E-05,      /* K =  5 */
(PID.TID 0000.0001)                 1.499903428890670E-04,      /* K =  6 */
(PID.TID 0000.0001)                 1.186737265074332E-04,      /* K =  7 */
(PID.TID 0000.0001)                 1.466841384627423E-04,      /* K =  8 */
(PID.TID 0000.0001)                 8.712618931102987E-05,      /* K =  9 */
(PID.TID 0000.0001)                 1.151380441308261E-04,      /* K = 10 */
(PID.TID 0000.0001)                 5.712979717883684E-05,      /* K = 11 */
(PID.TID 0000.0001)                 8.515049872565506E-05,      /* K = 12 */
(PID.TID 0000.0001)                 8.448721842774896E-05,      /* K = 13 */
(PID.TID 0000.0001)                 1.116043428725511E-04,      /* K = 14 */
(PID.TID 0000.0001)                 1.102373809396796E-04,      /* K = 15 */
(PID.TID 0000.0001)                 1.798828639202717E-04,      /* K = 16 */
(PID.TID 0000.0001)                 1.918102676980872E-04,      /* K = 17 */
(PID.TID 0000.0001)                 1.853506120896664E-04,      /* K = 18 */
(PID.TID 0000.0001)                 1.787791674911888E-04,      /* K = 19 */
(PID.TID 0000.0001)                 9.455522998141848E-05,      /* K = 20 */
(PID.TID 0000.0001)                 1.259231836379978E-04,      /* K = 21 */
(PID.TID 0000.0001)                 9.923620256554768E-05,      /* K = 22 */
(PID.TID 0000.0001)                 8.531935398693722E-05,      /* K = 23 */
(PID.TID 0000.0001)                 4.137475825384700E-05,      /* K = 24 */
(PID.TID 0000.0001)                 5.930109718499171E-05,      /* K = 25 */
(PID.TID 0000.0001)                 3.689739454308316E-05,      /* K = 26 */
(PID.TID 0000.0001)                 3.215311288275425E-05,      /* K = 27 */
(PID.TID 0000.0001)                 2.340106578013931E-05,      /* K = 28 */
(PID.TID 0000.0001)                 8.957465806881803E-06,      /* K = 29 */
(PID.TID 0000.0001)                 2.029141226789735E-06,      /* K = 30 */
(PID.TID 0000.0001)                 0.000000000000000E+00,      /* K = 31 */
(PID.TID 0000.0001)                 1.052869956707729E-06,      /* K = 32 */
(PID.TID 0000.0001)                 1.465965950004292E-06,      /* K = 33 */
(PID.TID 0000.0001)                 6.817081889333135E-07,      /* K = 34 */
(PID.TID 0000.0001)                 6.544800624285541E-07       /* K = 35 */
(PID.TID 0000.0001)     ;
(PID.TID 0000.0001) rotateGrid = /* use rotated grid ( True/False ) */
(PID.TID 0000.0001)                   F
(PID.TID 0000.0001)     ;
(PID.TID 0000.0001) phiEuler = /* Euler angle, rotation about original z-coordinate [rad] */
(PID.TID 0000.0001)                 0.000000000000000E+00
(PID.TID 0000.0001)     ;
(PID.TID 0000.0001) thetaEuler = /* Euler angle, rotation about new x-coordinate [rad] */
(PID.TID 0000.0001)                 0.000000000000000E+00
(PID.TID 0000.0001)     ;
(PID.TID 0000.0001) psiEuler = /* Euler angle, rotation about new z-coordinate [rad] */
(PID.TID 0000.0001)                 0.000000000000000E+00
(PID.TID 0000.0001)     ;
(PID.TID 0000.0001) dxF =  /* dxF(:,1,:,1) ( units: m ) */
(PID.TID 0000.0001)                 7.929738280416872E+04       /* I =  1 */
(PID.TID 0000.0001)     ;
(PID.TID 0000.0001) dxF =  /* dxF(1,:,1,:) ( units: m ) */
(PID.TID 0000.0001)                 7.929738280416872E+04       /* J =  1 */
(PID.TID 0000.0001)     ;
(PID.TID 0000.0001) dyF =  /* dyF(:,1,:,1) ( units: m ) */
(PID.TID 0000.0001)                 1.111774733520388E+05       /* I =  1 */
(PID.TID 0000.0001)     ;
(PID.TID 0000.0001) dyF =  /* dyF(1,:,1,:) ( units: m ) */
(PID.TID 0000.0001)                 1.111774733520388E+05       /* J =  1 */
(PID.TID 0000.0001)     ;
(PID.TID 0000.0001) dxG =  /* dxG(:,1,:,1) ( units: m ) */
(PID.TID 0000.0001)                 7.861434532241331E+04       /* I =  1 */
(PID.TID 0000.0001)     ;
(PID.TID 0000.0001) dxG =  /* dxG(1,:,1,:) ( units: m ) */
(PID.TID 0000.0001)                 7.861434532241331E+04       /* J =  1 */
(PID.TID 0000.0001)     ;
(PID.TID 0000.0001) dyG =  /* dyG(:,1,:,1) ( units: m ) */
(PID.TID 0000.0001)                 1.111774733520388E+05       /* I =  1 */
(PID.TID 0000.0001)     ;
(PID.TID 0000.0001) dyG =  /* dyG(1,:,1,:) ( units: m ) */
(PID.TID 0000.0001)                 1.111774733520388E+05       /* J =  1 */
(PID.TID 0000.0001)     ;
(PID.TID 0000.0001) dxC =  /* dxC(:,1,:,1) ( units: m ) */
(PID.TID 0000.0001)                 7.929738280416872E+04       /* I =  1 */
(PID.TID 0000.0001)     ;
(PID.TID 0000.0001) dxC =  /* dxC(1,:,1,:) ( units: m ) */
(PID.TID 0000.0001)                 7.929738280416872E+04       /* J =  1 */
(PID.TID 0000.0001)     ;
(PID.TID 0000.0001) dyC =  /* dyC(:,1,:,1) ( units: m ) */
(PID.TID 0000.0001)                 1.111774733520388E+05       /* I =  1 */
(PID.TID 0000.0001)     ;
(PID.TID 0000.0001) dyC =  /* dyC(1,:,1,:) ( units: m ) */
(PID.TID 0000.0001)                 1.111774733520388E+05       /* J =  1 */
(PID.TID 0000.0001)     ;
(PID.TID 0000.0001) dxV =  /* dxV(:,1,:,1) ( units: m ) */
(PID.TID 0000.0001)                 7.861434532241331E+04       /* I =  1 */
(PID.TID 0000.0001)     ;
(PID.TID 0000.0001) dxV =  /* dxV(1,:,1,:) ( units: m ) */
(PID.TID 0000.0001)                 7.861434532241331E+04       /* J =  1 */
(PID.TID 0000.0001)     ;
(PID.TID 0000.0001) dyU =  /* dyU(:,1,:,1) ( units: m ) */
(PID.TID 0000.0001)                 1.111774733520388E+05       /* I =  1 */
(PID.TID 0000.0001)     ;
(PID.TID 0000.0001) dyU =  /* dyU(1,:,1,:) ( units: m ) */
(PID.TID 0000.0001)                 1.111774733520388E+05       /* J =  1 */
(PID.TID 0000.0001)     ;
(PID.TID 0000.0001) rA  =  /* rA (:,1,:,1) ( units: m^2 ) */
(PID.TID 0000.0001)                 8.815970766841537E+09       /* I =  1 */
(PID.TID 0000.0001)     ;
(PID.TID 0000.0001) rA  =  /* rA (1,:,1,:) ( units: m^2 ) */
(PID.TID 0000.0001)                 8.815970766841537E+09       /* J =  1 */
(PID.TID 0000.0001)     ;
(PID.TID 0000.0001) rAw =  /* rAw(:,1,:,1) ( units: m^2 ) */
(PID.TID 0000.0001)                 8.815970766841537E+09       /* I =  1 */
(PID.TID 0000.0001)     ;
(PID.TID 0000.0001) rAw =  /* rAw(1,:,1,:) ( units: m^2 ) */
(PID.TID 0000.0001)                 8.815970766841537E+09       /* J =  1 */
(PID.TID 0000.0001)     ;
(PID.TID 0000.0001) rAs =  /* rAs(:,1,:,1) ( units: m^2 ) */
(PID.TID 0000.0001)                 8.740033349251320E+09       /* I =  1 */
(PID.TID 0000.0001)     ;
(PID.TID 0000.0001) rAs =  /* rAs(1,:,1,:) ( units: m^2 ) */
(PID.TID 0000.0001)                 8.740033349251320E+09       /* J =  1 */
(PID.TID 0000.0001)     ;
(PID.TID 0000.0001) globalArea = /* Integrated horizontal Area (m^2) */
(PID.TID 0000.0001)                 8.815970766841537E+09
(PID.TID 0000.0001)     ;
(PID.TID 0000.0001) // =======================================================
(PID.TID 0000.0001) // End of Model config. summary
(PID.TID 0000.0001) // =======================================================
(PID.TID 0000.0001) 
(PID.TID 0000.0001) == Packages configuration : Check & print summary ==
(PID.TID 0000.0001) 
(PID.TID 0000.0001) KPP_CHECK: #define ALLOW_KPP
(PID.TID 0000.0001) PTRACERS_CHECK: #define ALLOW_PTRACERS
(PID.TID 0000.0001) PTRACERS_CHECK: updated GAD_OlMinSize=  2  0  1
(PID.TID 0000.0001) // ===================================
(PID.TID 0000.0001) // PTRACERS parameters
(PID.TID 0000.0001) // ===================================
(PID.TID 0000.0001) PTRACERS_numInUse = /* number of tracers */
(PID.TID 0000.0001)                      33
(PID.TID 0000.0001)     ;
(PID.TID 0000.0001) PTRACERS_Iter0 = /* timestep number when tracers are initialized */
(PID.TID 0000.0001)                       0
(PID.TID 0000.0001)     ;
(PID.TID 0000.0001) PTRACERS_startAllTrc =/* all tracers start @ startTime */
(PID.TID 0000.0001)                   T
(PID.TID 0000.0001)     ;
(PID.TID 0000.0001) PTRACERS_addSrelax2EmP =/* add Salt relaxation to EmP */
(PID.TID 0000.0001)                   F
(PID.TID 0000.0001)     ;
(PID.TID 0000.0001) PTRACERS_dTLev =   /* Ptracer timestep ( s ) */
(PID.TID 0000.0001)    35 @  3.600000000000000E+03              /* K =  1: 35 */
(PID.TID 0000.0001)     ;
(PID.TID 0000.0001) PTRACERS_dumpFreq = /* Frequency^-1 for snapshot output (s) */
(PID.TID 0000.0001)                 3.600000000000000E+03
(PID.TID 0000.0001)     ;
(PID.TID 0000.0001) PTRACERS_taveFreq = /* Frequency^-1 for time-Aver. output (s) */
(PID.TID 0000.0001)                 2.592000000000000E+06
(PID.TID 0000.0001)     ;
(PID.TID 0000.0001) PTRACERS_useRecords = /* all tracers in 1 file */
(PID.TID 0000.0001)                   F
(PID.TID 0000.0001)     ;
(PID.TID 0000.0001) PTRACERS_timeave_mnc = /* use MNC for Tave output */
(PID.TID 0000.0001)                   T
(PID.TID 0000.0001)     ;
(PID.TID 0000.0001) PTRACERS_snapshot_mnc = /* use MNC for snapshot output */
(PID.TID 0000.0001)                   T
(PID.TID 0000.0001)     ;
(PID.TID 0000.0001) PTRACERS_pickup_write_mnc = /* use MNC for writing pickups */
(PID.TID 0000.0001)                   F
(PID.TID 0000.0001)     ;
(PID.TID 0000.0001) PTRACERS_pickup_read_mnc = /* use MNC for reading pickups */
(PID.TID 0000.0001)                   F
(PID.TID 0000.0001)     ;
(PID.TID 0000.0001)  -----------------------------------
(PID.TID 0000.0001)  tracer number :    1
(PID.TID 0000.0001) PTRACERS_names = /* Tracer short name */
(PID.TID 0000.0001)               'DIC'
(PID.TID 0000.0001)     ;
(PID.TID 0000.0001) PTRACERS_long_names = /* Tracer long name */
(PID.TID 0000.0001)               ''
(PID.TID 0000.0001)     ;
(PID.TID 0000.0001) PTRACERS_ioLabel = /* tracer IO Label */
(PID.TID 0000.0001)               '01'
(PID.TID 0000.0001)     ;
(PID.TID 0000.0001) PTRACERS_advScheme = /* Advection Scheme */
(PID.TID 0000.0001)                      33
(PID.TID 0000.0001)     ;
(PID.TID 0000.0001) PTRACERS_SOM_Advection = /* tracer uses SOM advection scheme */
(PID.TID 0000.0001)                   F
(PID.TID 0000.0001)     ;
(PID.TID 0000.0001) PTRACERS_ImplVertAdv = /* implicit vert. advection flag */
(PID.TID 0000.0001)                   F
(PID.TID 0000.0001)     ;
(PID.TID 0000.0001) PTRACERS_diffKh = /* Laplacian Diffusivity */
(PID.TID 0000.0001)                 0.000000000000000E+00
(PID.TID 0000.0001)     ;
(PID.TID 0000.0001) PTRACERS_diffK4 = /* Biharmonic Diffusivity */
(PID.TID 0000.0001)                 0.000000000000000E+00
(PID.TID 0000.0001)     ;
(PID.TID 0000.0001) PTRACERS_diffKrNr = /* Vertical Diffusivity */
(PID.TID 0000.0001)    35 @  1.000000000000000E-05              /* K =  1: 35 */
(PID.TID 0000.0001)     ;
(PID.TID 0000.0001) PTRACERS_useGMRedi = /* apply GM-Redi */
(PID.TID 0000.0001)                   F
(PID.TID 0000.0001)     ;
(PID.TID 0000.0001) PTRACERS_useDWNSLP = /* apply DOWN-SLOPE Flow */
(PID.TID 0000.0001)                   F
(PID.TID 0000.0001)     ;
(PID.TID 0000.0001) PTRACERS_useKPP = /* apply KPP scheme */
(PID.TID 0000.0001)                   T
(PID.TID 0000.0001)     ;
(PID.TID 0000.0001) PTRACERS_ref = /* Reference vertical profile */
(PID.TID 0000.0001)    35 @  0.000000000000000E+00              /* K =  1: 35 */
(PID.TID 0000.0001)     ;
(PID.TID 0000.0001) PTRACERS_EvPrRn =/* tracer conc. in Evap. & Rain */
(PID.TID 0000.0001)                 1.234567000000000E+05
(PID.TID 0000.0001)     ;
(PID.TID 0000.0001)  -----------------------------------
(PID.TID 0000.0001)  tracer number :    2
(PID.TID 0000.0001) PTRACERS_names = /* Tracer short name */
(PID.TID 0000.0001)               'NH4'
(PID.TID 0000.0001)     ;
(PID.TID 0000.0001) PTRACERS_long_names = /* Tracer long name */
(PID.TID 0000.0001)               ''
(PID.TID 0000.0001)     ;
(PID.TID 0000.0001) PTRACERS_ioLabel = /* tracer IO Label */
(PID.TID 0000.0001)               '02'
(PID.TID 0000.0001)     ;
(PID.TID 0000.0001) PTRACERS_advScheme = /* Advection Scheme */
(PID.TID 0000.0001)                      33
(PID.TID 0000.0001)     ;
(PID.TID 0000.0001) PTRACERS_SOM_Advection = /* tracer uses SOM advection scheme */
(PID.TID 0000.0001)                   F
(PID.TID 0000.0001)     ;
(PID.TID 0000.0001) PTRACERS_ImplVertAdv = /* implicit vert. advection flag */
(PID.TID 0000.0001)                   F
(PID.TID 0000.0001)     ;
(PID.TID 0000.0001) PTRACERS_diffKh = /* Laplacian Diffusivity */
(PID.TID 0000.0001)                 0.000000000000000E+00
(PID.TID 0000.0001)     ;
(PID.TID 0000.0001) PTRACERS_diffK4 = /* Biharmonic Diffusivity */
(PID.TID 0000.0001)                 0.000000000000000E+00
(PID.TID 0000.0001)     ;
(PID.TID 0000.0001) PTRACERS_diffKrNr = /* Vertical Diffusivity */
(PID.TID 0000.0001)    35 @  1.000000000000000E-05              /* K =  1: 35 */
(PID.TID 0000.0001)     ;
(PID.TID 0000.0001) PTRACERS_useGMRedi = /* apply GM-Redi */
(PID.TID 0000.0001)                   F
(PID.TID 0000.0001)     ;
(PID.TID 0000.0001) PTRACERS_useDWNSLP = /* apply DOWN-SLOPE Flow */
(PID.TID 0000.0001)                   F
(PID.TID 0000.0001)     ;
(PID.TID 0000.0001) PTRACERS_useKPP = /* apply KPP scheme */
(PID.TID 0000.0001)                   T
(PID.TID 0000.0001)     ;
(PID.TID 0000.0001) PTRACERS_ref = /* Reference vertical profile */
(PID.TID 0000.0001)    35 @  0.000000000000000E+00              /* K =  1: 35 */
(PID.TID 0000.0001)     ;
(PID.TID 0000.0001) PTRACERS_EvPrRn =/* tracer conc. in Evap. & Rain */
(PID.TID 0000.0001)                 1.234567000000000E+05
(PID.TID 0000.0001)     ;
(PID.TID 0000.0001)  -----------------------------------
(PID.TID 0000.0001)  tracer number :    3
(PID.TID 0000.0001) PTRACERS_names = /* Tracer short name */
(PID.TID 0000.0001)               'NO2'
(PID.TID 0000.0001)     ;
(PID.TID 0000.0001) PTRACERS_long_names = /* Tracer long name */
(PID.TID 0000.0001)               ''
(PID.TID 0000.0001)     ;
(PID.TID 0000.0001) PTRACERS_ioLabel = /* tracer IO Label */
(PID.TID 0000.0001)               '03'
(PID.TID 0000.0001)     ;
(PID.TID 0000.0001) PTRACERS_advScheme = /* Advection Scheme */
(PID.TID 0000.0001)                      33
(PID.TID 0000.0001)     ;
(PID.TID 0000.0001) PTRACERS_SOM_Advection = /* tracer uses SOM advection scheme */
(PID.TID 0000.0001)                   F
(PID.TID 0000.0001)     ;
(PID.TID 0000.0001) PTRACERS_ImplVertAdv = /* implicit vert. advection flag */
(PID.TID 0000.0001)                   F
(PID.TID 0000.0001)     ;
(PID.TID 0000.0001) PTRACERS_diffKh = /* Laplacian Diffusivity */
(PID.TID 0000.0001)                 0.000000000000000E+00
(PID.TID 0000.0001)     ;
(PID.TID 0000.0001) PTRACERS_diffK4 = /* Biharmonic Diffusivity */
(PID.TID 0000.0001)                 0.000000000000000E+00
(PID.TID 0000.0001)     ;
(PID.TID 0000.0001) PTRACERS_diffKrNr = /* Vertical Diffusivity */
(PID.TID 0000.0001)    35 @  1.000000000000000E-05              /* K =  1: 35 */
(PID.TID 0000.0001)     ;
(PID.TID 0000.0001) PTRACERS_useGMRedi = /* apply GM-Redi */
(PID.TID 0000.0001)                   F
(PID.TID 0000.0001)     ;
(PID.TID 0000.0001) PTRACERS_useDWNSLP = /* apply DOWN-SLOPE Flow */
(PID.TID 0000.0001)                   F
(PID.TID 0000.0001)     ;
(PID.TID 0000.0001) PTRACERS_useKPP = /* apply KPP scheme */
(PID.TID 0000.0001)                   T
(PID.TID 0000.0001)     ;
(PID.TID 0000.0001) PTRACERS_ref = /* Reference vertical profile */
(PID.TID 0000.0001)    35 @  0.000000000000000E+00              /* K =  1: 35 */
(PID.TID 0000.0001)     ;
(PID.TID 0000.0001) PTRACERS_EvPrRn =/* tracer conc. in Evap. & Rain */
(PID.TID 0000.0001)                 1.234567000000000E+05
(PID.TID 0000.0001)     ;
(PID.TID 0000.0001)  -----------------------------------
(PID.TID 0000.0001)  tracer number :    4
(PID.TID 0000.0001) PTRACERS_names = /* Tracer short name */
(PID.TID 0000.0001)               'NO3'
(PID.TID 0000.0001)     ;
(PID.TID 0000.0001) PTRACERS_long_names = /* Tracer long name */
(PID.TID 0000.0001)               ''
(PID.TID 0000.0001)     ;
(PID.TID 0000.0001) PTRACERS_ioLabel = /* tracer IO Label */
(PID.TID 0000.0001)               '04'
(PID.TID 0000.0001)     ;
(PID.TID 0000.0001) PTRACERS_advScheme = /* Advection Scheme */
(PID.TID 0000.0001)                      33
(PID.TID 0000.0001)     ;
(PID.TID 0000.0001) PTRACERS_SOM_Advection = /* tracer uses SOM advection scheme */
(PID.TID 0000.0001)                   F
(PID.TID 0000.0001)     ;
(PID.TID 0000.0001) PTRACERS_ImplVertAdv = /* implicit vert. advection flag */
(PID.TID 0000.0001)                   F
(PID.TID 0000.0001)     ;
(PID.TID 0000.0001) PTRACERS_diffKh = /* Laplacian Diffusivity */
(PID.TID 0000.0001)                 0.000000000000000E+00
(PID.TID 0000.0001)     ;
(PID.TID 0000.0001) PTRACERS_diffK4 = /* Biharmonic Diffusivity */
(PID.TID 0000.0001)                 0.000000000000000E+00
(PID.TID 0000.0001)     ;
(PID.TID 0000.0001) PTRACERS_diffKrNr = /* Vertical Diffusivity */
(PID.TID 0000.0001)    35 @  1.000000000000000E-05              /* K =  1: 35 */
(PID.TID 0000.0001)     ;
(PID.TID 0000.0001) PTRACERS_useGMRedi = /* apply GM-Redi */
(PID.TID 0000.0001)                   F
(PID.TID 0000.0001)     ;
(PID.TID 0000.0001) PTRACERS_useDWNSLP = /* apply DOWN-SLOPE Flow */
(PID.TID 0000.0001)                   F
(PID.TID 0000.0001)     ;
(PID.TID 0000.0001) PTRACERS_useKPP = /* apply KPP scheme */
(PID.TID 0000.0001)                   T
(PID.TID 0000.0001)     ;
(PID.TID 0000.0001) PTRACERS_ref = /* Reference vertical profile */
(PID.TID 0000.0001)    35 @  0.000000000000000E+00              /* K =  1: 35 */
(PID.TID 0000.0001)     ;
(PID.TID 0000.0001) PTRACERS_EvPrRn =/* tracer conc. in Evap. & Rain */
(PID.TID 0000.0001)                 1.234567000000000E+05
(PID.TID 0000.0001)     ;
(PID.TID 0000.0001)  -----------------------------------
(PID.TID 0000.0001)  tracer number :    5
(PID.TID 0000.0001) PTRACERS_names = /* Tracer short name */
(PID.TID 0000.0001)               'PO4'
(PID.TID 0000.0001)     ;
(PID.TID 0000.0001) PTRACERS_long_names = /* Tracer long name */
(PID.TID 0000.0001)               ''
(PID.TID 0000.0001)     ;
(PID.TID 0000.0001) PTRACERS_ioLabel = /* tracer IO Label */
(PID.TID 0000.0001)               '05'
(PID.TID 0000.0001)     ;
(PID.TID 0000.0001) PTRACERS_advScheme = /* Advection Scheme */
(PID.TID 0000.0001)                      33
(PID.TID 0000.0001)     ;
(PID.TID 0000.0001) PTRACERS_SOM_Advection = /* tracer uses SOM advection scheme */
(PID.TID 0000.0001)                   F
(PID.TID 0000.0001)     ;
(PID.TID 0000.0001) PTRACERS_ImplVertAdv = /* implicit vert. advection flag */
(PID.TID 0000.0001)                   F
(PID.TID 0000.0001)     ;
(PID.TID 0000.0001) PTRACERS_diffKh = /* Laplacian Diffusivity */
(PID.TID 0000.0001)                 0.000000000000000E+00
(PID.TID 0000.0001)     ;
(PID.TID 0000.0001) PTRACERS_diffK4 = /* Biharmonic Diffusivity */
(PID.TID 0000.0001)                 0.000000000000000E+00
(PID.TID 0000.0001)     ;
(PID.TID 0000.0001) PTRACERS_diffKrNr = /* Vertical Diffusivity */
(PID.TID 0000.0001)    35 @  1.000000000000000E-05              /* K =  1: 35 */
(PID.TID 0000.0001)     ;
(PID.TID 0000.0001) PTRACERS_useGMRedi = /* apply GM-Redi */
(PID.TID 0000.0001)                   F
(PID.TID 0000.0001)     ;
(PID.TID 0000.0001) PTRACERS_useDWNSLP = /* apply DOWN-SLOPE Flow */
(PID.TID 0000.0001)                   F
(PID.TID 0000.0001)     ;
(PID.TID 0000.0001) PTRACERS_useKPP = /* apply KPP scheme */
(PID.TID 0000.0001)                   T
(PID.TID 0000.0001)     ;
(PID.TID 0000.0001) PTRACERS_ref = /* Reference vertical profile */
(PID.TID 0000.0001)    35 @  0.000000000000000E+00              /* K =  1: 35 */
(PID.TID 0000.0001)     ;
(PID.TID 0000.0001) PTRACERS_EvPrRn =/* tracer conc. in Evap. & Rain */
(PID.TID 0000.0001)                 1.234567000000000E+05
(PID.TID 0000.0001)     ;
(PID.TID 0000.0001)  -----------------------------------
(PID.TID 0000.0001)  tracer number :    6
(PID.TID 0000.0001) PTRACERS_names = /* Tracer short name */
(PID.TID 0000.0001)               'SiO2'
(PID.TID 0000.0001)     ;
(PID.TID 0000.0001) PTRACERS_long_names = /* Tracer long name */
(PID.TID 0000.0001)               ''
(PID.TID 0000.0001)     ;
(PID.TID 0000.0001) PTRACERS_ioLabel = /* tracer IO Label */
(PID.TID 0000.0001)               '06'
(PID.TID 0000.0001)     ;
(PID.TID 0000.0001) PTRACERS_advScheme = /* Advection Scheme */
(PID.TID 0000.0001)                      33
(PID.TID 0000.0001)     ;
(PID.TID 0000.0001) PTRACERS_SOM_Advection = /* tracer uses SOM advection scheme */
(PID.TID 0000.0001)                   F
(PID.TID 0000.0001)     ;
(PID.TID 0000.0001) PTRACERS_ImplVertAdv = /* implicit vert. advection flag */
(PID.TID 0000.0001)                   F
(PID.TID 0000.0001)     ;
(PID.TID 0000.0001) PTRACERS_diffKh = /* Laplacian Diffusivity */
(PID.TID 0000.0001)                 0.000000000000000E+00
(PID.TID 0000.0001)     ;
(PID.TID 0000.0001) PTRACERS_diffK4 = /* Biharmonic Diffusivity */
(PID.TID 0000.0001)                 0.000000000000000E+00
(PID.TID 0000.0001)     ;
(PID.TID 0000.0001) PTRACERS_diffKrNr = /* Vertical Diffusivity */
(PID.TID 0000.0001)    35 @  1.000000000000000E-05              /* K =  1: 35 */
(PID.TID 0000.0001)     ;
(PID.TID 0000.0001) PTRACERS_useGMRedi = /* apply GM-Redi */
(PID.TID 0000.0001)                   F
(PID.TID 0000.0001)     ;
(PID.TID 0000.0001) PTRACERS_useDWNSLP = /* apply DOWN-SLOPE Flow */
(PID.TID 0000.0001)                   F
(PID.TID 0000.0001)     ;
(PID.TID 0000.0001) PTRACERS_useKPP = /* apply KPP scheme */
(PID.TID 0000.0001)                   T
(PID.TID 0000.0001)     ;
(PID.TID 0000.0001) PTRACERS_ref = /* Reference vertical profile */
(PID.TID 0000.0001)    35 @  0.000000000000000E+00              /* K =  1: 35 */
(PID.TID 0000.0001)     ;
(PID.TID 0000.0001) PTRACERS_EvPrRn =/* tracer conc. in Evap. & Rain */
(PID.TID 0000.0001)                 1.234567000000000E+05
(PID.TID 0000.0001)     ;
(PID.TID 0000.0001)  -----------------------------------
(PID.TID 0000.0001)  tracer number :    7
(PID.TID 0000.0001) PTRACERS_names = /* Tracer short name */
(PID.TID 0000.0001)               'FeT'
(PID.TID 0000.0001)     ;
(PID.TID 0000.0001) PTRACERS_long_names = /* Tracer long name */
(PID.TID 0000.0001)               ''
(PID.TID 0000.0001)     ;
(PID.TID 0000.0001) PTRACERS_ioLabel = /* tracer IO Label */
(PID.TID 0000.0001)               '07'
(PID.TID 0000.0001)     ;
(PID.TID 0000.0001) PTRACERS_advScheme = /* Advection Scheme */
(PID.TID 0000.0001)                      33
(PID.TID 0000.0001)     ;
(PID.TID 0000.0001) PTRACERS_SOM_Advection = /* tracer uses SOM advection scheme */
(PID.TID 0000.0001)                   F
(PID.TID 0000.0001)     ;
(PID.TID 0000.0001) PTRACERS_ImplVertAdv = /* implicit vert. advection flag */
(PID.TID 0000.0001)                   F
(PID.TID 0000.0001)     ;
(PID.TID 0000.0001) PTRACERS_diffKh = /* Laplacian Diffusivity */
(PID.TID 0000.0001)                 0.000000000000000E+00
(PID.TID 0000.0001)     ;
(PID.TID 0000.0001) PTRACERS_diffK4 = /* Biharmonic Diffusivity */
(PID.TID 0000.0001)                 0.000000000000000E+00
(PID.TID 0000.0001)     ;
(PID.TID 0000.0001) PTRACERS_diffKrNr = /* Vertical Diffusivity */
(PID.TID 0000.0001)    35 @  1.000000000000000E-05              /* K =  1: 35 */
(PID.TID 0000.0001)     ;
(PID.TID 0000.0001) PTRACERS_useGMRedi = /* apply GM-Redi */
(PID.TID 0000.0001)                   F
(PID.TID 0000.0001)     ;
(PID.TID 0000.0001) PTRACERS_useDWNSLP = /* apply DOWN-SLOPE Flow */
(PID.TID 0000.0001)                   F
(PID.TID 0000.0001)     ;
(PID.TID 0000.0001) PTRACERS_useKPP = /* apply KPP scheme */
(PID.TID 0000.0001)                   T
(PID.TID 0000.0001)     ;
(PID.TID 0000.0001) PTRACERS_ref = /* Reference vertical profile */
(PID.TID 0000.0001)    35 @  0.000000000000000E+00              /* K =  1: 35 */
(PID.TID 0000.0001)     ;
(PID.TID 0000.0001) PTRACERS_EvPrRn =/* tracer conc. in Evap. & Rain */
(PID.TID 0000.0001)                 1.234567000000000E+05
(PID.TID 0000.0001)     ;
(PID.TID 0000.0001)  -----------------------------------
(PID.TID 0000.0001)  tracer number :    8
(PID.TID 0000.0001) PTRACERS_names = /* Tracer short name */
(PID.TID 0000.0001)               'DOC'
(PID.TID 0000.0001)     ;
(PID.TID 0000.0001) PTRACERS_long_names = /* Tracer long name */
(PID.TID 0000.0001)               ''
(PID.TID 0000.0001)     ;
(PID.TID 0000.0001) PTRACERS_ioLabel = /* tracer IO Label */
(PID.TID 0000.0001)               '08'
(PID.TID 0000.0001)     ;
(PID.TID 0000.0001) PTRACERS_advScheme = /* Advection Scheme */
(PID.TID 0000.0001)                      33
(PID.TID 0000.0001)     ;
(PID.TID 0000.0001) PTRACERS_SOM_Advection = /* tracer uses SOM advection scheme */
(PID.TID 0000.0001)                   F
(PID.TID 0000.0001)     ;
(PID.TID 0000.0001) PTRACERS_ImplVertAdv = /* implicit vert. advection flag */
(PID.TID 0000.0001)                   F
(PID.TID 0000.0001)     ;
(PID.TID 0000.0001) PTRACERS_diffKh = /* Laplacian Diffusivity */
(PID.TID 0000.0001)                 0.000000000000000E+00
(PID.TID 0000.0001)     ;
(PID.TID 0000.0001) PTRACERS_diffK4 = /* Biharmonic Diffusivity */
(PID.TID 0000.0001)                 0.000000000000000E+00
(PID.TID 0000.0001)     ;
(PID.TID 0000.0001) PTRACERS_diffKrNr = /* Vertical Diffusivity */
(PID.TID 0000.0001)    35 @  1.000000000000000E-05              /* K =  1: 35 */
(PID.TID 0000.0001)     ;
(PID.TID 0000.0001) PTRACERS_useGMRedi = /* apply GM-Redi */
(PID.TID 0000.0001)                   F
(PID.TID 0000.0001)     ;
(PID.TID 0000.0001) PTRACERS_useDWNSLP = /* apply DOWN-SLOPE Flow */
(PID.TID 0000.0001)                   F
(PID.TID 0000.0001)     ;
(PID.TID 0000.0001) PTRACERS_useKPP = /* apply KPP scheme */
(PID.TID 0000.0001)                   T
(PID.TID 0000.0001)     ;
(PID.TID 0000.0001) PTRACERS_ref = /* Reference vertical profile */
(PID.TID 0000.0001)    35 @  0.000000000000000E+00              /* K =  1: 35 */
(PID.TID 0000.0001)     ;
(PID.TID 0000.0001) PTRACERS_EvPrRn =/* tracer conc. in Evap. & Rain */
(PID.TID 0000.0001)                 1.234567000000000E+05
(PID.TID 0000.0001)     ;
(PID.TID 0000.0001)  -----------------------------------
(PID.TID 0000.0001)  tracer number :    9
(PID.TID 0000.0001) PTRACERS_names = /* Tracer short name */
(PID.TID 0000.0001)               'DON'
(PID.TID 0000.0001)     ;
(PID.TID 0000.0001) PTRACERS_long_names = /* Tracer long name */
(PID.TID 0000.0001)               ''
(PID.TID 0000.0001)     ;
(PID.TID 0000.0001) PTRACERS_ioLabel = /* tracer IO Label */
(PID.TID 0000.0001)               '09'
(PID.TID 0000.0001)     ;
(PID.TID 0000.0001) PTRACERS_advScheme = /* Advection Scheme */
(PID.TID 0000.0001)                      33
(PID.TID 0000.0001)     ;
(PID.TID 0000.0001) PTRACERS_SOM_Advection = /* tracer uses SOM advection scheme */
(PID.TID 0000.0001)                   F
(PID.TID 0000.0001)     ;
(PID.TID 0000.0001) PTRACERS_ImplVertAdv = /* implicit vert. advection flag */
(PID.TID 0000.0001)                   F
(PID.TID 0000.0001)     ;
(PID.TID 0000.0001) PTRACERS_diffKh = /* Laplacian Diffusivity */
(PID.TID 0000.0001)                 0.000000000000000E+00
(PID.TID 0000.0001)     ;
(PID.TID 0000.0001) PTRACERS_diffK4 = /* Biharmonic Diffusivity */
(PID.TID 0000.0001)                 0.000000000000000E+00
(PID.TID 0000.0001)     ;
(PID.TID 0000.0001) PTRACERS_diffKrNr = /* Vertical Diffusivity */
(PID.TID 0000.0001)    35 @  1.000000000000000E-05              /* K =  1: 35 */
(PID.TID 0000.0001)     ;
(PID.TID 0000.0001) PTRACERS_useGMRedi = /* apply GM-Redi */
(PID.TID 0000.0001)                   F
(PID.TID 0000.0001)     ;
(PID.TID 0000.0001) PTRACERS_useDWNSLP = /* apply DOWN-SLOPE Flow */
(PID.TID 0000.0001)                   F
(PID.TID 0000.0001)     ;
(PID.TID 0000.0001) PTRACERS_useKPP = /* apply KPP scheme */
(PID.TID 0000.0001)                   T
(PID.TID 0000.0001)     ;
(PID.TID 0000.0001) PTRACERS_ref = /* Reference vertical profile */
(PID.TID 0000.0001)    35 @  0.000000000000000E+00              /* K =  1: 35 */
(PID.TID 0000.0001)     ;
(PID.TID 0000.0001) PTRACERS_EvPrRn =/* tracer conc. in Evap. & Rain */
(PID.TID 0000.0001)                 1.234567000000000E+05
(PID.TID 0000.0001)     ;
(PID.TID 0000.0001)  -----------------------------------
(PID.TID 0000.0001)  tracer number :   10
(PID.TID 0000.0001) PTRACERS_names = /* Tracer short name */
(PID.TID 0000.0001)               'DOP'
(PID.TID 0000.0001)     ;
(PID.TID 0000.0001) PTRACERS_long_names = /* Tracer long name */
(PID.TID 0000.0001)               ''
(PID.TID 0000.0001)     ;
(PID.TID 0000.0001) PTRACERS_ioLabel = /* tracer IO Label */
(PID.TID 0000.0001)               '10'
(PID.TID 0000.0001)     ;
(PID.TID 0000.0001) PTRACERS_advScheme = /* Advection Scheme */
(PID.TID 0000.0001)                      33
(PID.TID 0000.0001)     ;
(PID.TID 0000.0001) PTRACERS_SOM_Advection = /* tracer uses SOM advection scheme */
(PID.TID 0000.0001)                   F
(PID.TID 0000.0001)     ;
(PID.TID 0000.0001) PTRACERS_ImplVertAdv = /* implicit vert. advection flag */
(PID.TID 0000.0001)                   F
(PID.TID 0000.0001)     ;
(PID.TID 0000.0001) PTRACERS_diffKh = /* Laplacian Diffusivity */
(PID.TID 0000.0001)                 0.000000000000000E+00
(PID.TID 0000.0001)     ;
(PID.TID 0000.0001) PTRACERS_diffK4 = /* Biharmonic Diffusivity */
(PID.TID 0000.0001)                 0.000000000000000E+00
(PID.TID 0000.0001)     ;
(PID.TID 0000.0001) PTRACERS_diffKrNr = /* Vertical Diffusivity */
(PID.TID 0000.0001)    35 @  1.000000000000000E-05              /* K =  1: 35 */
(PID.TID 0000.0001)     ;
(PID.TID 0000.0001) PTRACERS_useGMRedi = /* apply GM-Redi */
(PID.TID 0000.0001)                   F
(PID.TID 0000.0001)     ;
(PID.TID 0000.0001) PTRACERS_useDWNSLP = /* apply DOWN-SLOPE Flow */
(PID.TID 0000.0001)                   F
(PID.TID 0000.0001)     ;
(PID.TID 0000.0001) PTRACERS_useKPP = /* apply KPP scheme */
(PID.TID 0000.0001)                   T
(PID.TID 0000.0001)     ;
(PID.TID 0000.0001) PTRACERS_ref = /* Reference vertical profile */
(PID.TID 0000.0001)    35 @  0.000000000000000E+00              /* K =  1: 35 */
(PID.TID 0000.0001)     ;
(PID.TID 0000.0001) PTRACERS_EvPrRn =/* tracer conc. in Evap. & Rain */
(PID.TID 0000.0001)                 1.234567000000000E+05
(PID.TID 0000.0001)     ;
(PID.TID 0000.0001)  -----------------------------------
(PID.TID 0000.0001)  tracer number :   11
(PID.TID 0000.0001) PTRACERS_names = /* Tracer short name */
(PID.TID 0000.0001)               'DOFe'
(PID.TID 0000.0001)     ;
(PID.TID 0000.0001) PTRACERS_long_names = /* Tracer long name */
(PID.TID 0000.0001)               ''
(PID.TID 0000.0001)     ;
(PID.TID 0000.0001) PTRACERS_ioLabel = /* tracer IO Label */
(PID.TID 0000.0001)               '11'
(PID.TID 0000.0001)     ;
(PID.TID 0000.0001) PTRACERS_advScheme = /* Advection Scheme */
(PID.TID 0000.0001)                      33
(PID.TID 0000.0001)     ;
(PID.TID 0000.0001) PTRACERS_SOM_Advection = /* tracer uses SOM advection scheme */
(PID.TID 0000.0001)                   F
(PID.TID 0000.0001)     ;
(PID.TID 0000.0001) PTRACERS_ImplVertAdv = /* implicit vert. advection flag */
(PID.TID 0000.0001)                   F
(PID.TID 0000.0001)     ;
(PID.TID 0000.0001) PTRACERS_diffKh = /* Laplacian Diffusivity */
(PID.TID 0000.0001)                 0.000000000000000E+00
(PID.TID 0000.0001)     ;
(PID.TID 0000.0001) PTRACERS_diffK4 = /* Biharmonic Diffusivity */
(PID.TID 0000.0001)                 0.000000000000000E+00
(PID.TID 0000.0001)     ;
(PID.TID 0000.0001) PTRACERS_diffKrNr = /* Vertical Diffusivity */
(PID.TID 0000.0001)    35 @  1.000000000000000E-05              /* K =  1: 35 */
(PID.TID 0000.0001)     ;
(PID.TID 0000.0001) PTRACERS_useGMRedi = /* apply GM-Redi */
(PID.TID 0000.0001)                   F
(PID.TID 0000.0001)     ;
(PID.TID 0000.0001) PTRACERS_useDWNSLP = /* apply DOWN-SLOPE Flow */
(PID.TID 0000.0001)                   F
(PID.TID 0000.0001)     ;
(PID.TID 0000.0001) PTRACERS_useKPP = /* apply KPP scheme */
(PID.TID 0000.0001)                   T
(PID.TID 0000.0001)     ;
(PID.TID 0000.0001) PTRACERS_ref = /* Reference vertical profile */
(PID.TID 0000.0001)    35 @  0.000000000000000E+00              /* K =  1: 35 */
(PID.TID 0000.0001)     ;
(PID.TID 0000.0001) PTRACERS_EvPrRn =/* tracer conc. in Evap. & Rain */
(PID.TID 0000.0001)                 1.234567000000000E+05
(PID.TID 0000.0001)     ;
(PID.TID 0000.0001)  -----------------------------------
(PID.TID 0000.0001)  tracer number :   12
(PID.TID 0000.0001) PTRACERS_names = /* Tracer short name */
(PID.TID 0000.0001)               'POC'
(PID.TID 0000.0001)     ;
(PID.TID 0000.0001) PTRACERS_long_names = /* Tracer long name */
(PID.TID 0000.0001)               ''
(PID.TID 0000.0001)     ;
(PID.TID 0000.0001) PTRACERS_ioLabel = /* tracer IO Label */
(PID.TID 0000.0001)               '12'
(PID.TID 0000.0001)     ;
(PID.TID 0000.0001) PTRACERS_advScheme = /* Advection Scheme */
(PID.TID 0000.0001)                      33
(PID.TID 0000.0001)     ;
(PID.TID 0000.0001) PTRACERS_SOM_Advection = /* tracer uses SOM advection scheme */
(PID.TID 0000.0001)                   F
(PID.TID 0000.0001)     ;
(PID.TID 0000.0001) PTRACERS_ImplVertAdv = /* implicit vert. advection flag */
(PID.TID 0000.0001)                   F
(PID.TID 0000.0001)     ;
(PID.TID 0000.0001) PTRACERS_diffKh = /* Laplacian Diffusivity */
(PID.TID 0000.0001)                 0.000000000000000E+00
(PID.TID 0000.0001)     ;
(PID.TID 0000.0001) PTRACERS_diffK4 = /* Biharmonic Diffusivity */
(PID.TID 0000.0001)                 0.000000000000000E+00
(PID.TID 0000.0001)     ;
(PID.TID 0000.0001) PTRACERS_diffKrNr = /* Vertical Diffusivity */
(PID.TID 0000.0001)    35 @  1.000000000000000E-05              /* K =  1: 35 */
(PID.TID 0000.0001)     ;
(PID.TID 0000.0001) PTRACERS_useGMRedi = /* apply GM-Redi */
(PID.TID 0000.0001)                   F
(PID.TID 0000.0001)     ;
(PID.TID 0000.0001) PTRACERS_useDWNSLP = /* apply DOWN-SLOPE Flow */
(PID.TID 0000.0001)                   F
(PID.TID 0000.0001)     ;
(PID.TID 0000.0001) PTRACERS_useKPP = /* apply KPP scheme */
(PID.TID 0000.0001)                   T
(PID.TID 0000.0001)     ;
(PID.TID 0000.0001) PTRACERS_ref = /* Reference vertical profile */
(PID.TID 0000.0001)    35 @  0.000000000000000E+00              /* K =  1: 35 */
(PID.TID 0000.0001)     ;
(PID.TID 0000.0001) PTRACERS_EvPrRn =/* tracer conc. in Evap. & Rain */
(PID.TID 0000.0001)                 1.234567000000000E+05
(PID.TID 0000.0001)     ;
(PID.TID 0000.0001)  -----------------------------------
(PID.TID 0000.0001)  tracer number :   13
(PID.TID 0000.0001) PTRACERS_names = /* Tracer short name */
(PID.TID 0000.0001)               'PON'
(PID.TID 0000.0001)     ;
(PID.TID 0000.0001) PTRACERS_long_names = /* Tracer long name */
(PID.TID 0000.0001)               ''
(PID.TID 0000.0001)     ;
(PID.TID 0000.0001) PTRACERS_ioLabel = /* tracer IO Label */
(PID.TID 0000.0001)               '13'
(PID.TID 0000.0001)     ;
(PID.TID 0000.0001) PTRACERS_advScheme = /* Advection Scheme */
(PID.TID 0000.0001)                      33
(PID.TID 0000.0001)     ;
(PID.TID 0000.0001) PTRACERS_SOM_Advection = /* tracer uses SOM advection scheme */
(PID.TID 0000.0001)                   F
(PID.TID 0000.0001)     ;
(PID.TID 0000.0001) PTRACERS_ImplVertAdv = /* implicit vert. advection flag */
(PID.TID 0000.0001)                   F
(PID.TID 0000.0001)     ;
(PID.TID 0000.0001) PTRACERS_diffKh = /* Laplacian Diffusivity */
(PID.TID 0000.0001)                 0.000000000000000E+00
(PID.TID 0000.0001)     ;
(PID.TID 0000.0001) PTRACERS_diffK4 = /* Biharmonic Diffusivity */
(PID.TID 0000.0001)                 0.000000000000000E+00
(PID.TID 0000.0001)     ;
(PID.TID 0000.0001) PTRACERS_diffKrNr = /* Vertical Diffusivity */
(PID.TID 0000.0001)    35 @  1.000000000000000E-05              /* K =  1: 35 */
(PID.TID 0000.0001)     ;
(PID.TID 0000.0001) PTRACERS_useGMRedi = /* apply GM-Redi */
(PID.TID 0000.0001)                   F
(PID.TID 0000.0001)     ;
(PID.TID 0000.0001) PTRACERS_useDWNSLP = /* apply DOWN-SLOPE Flow */
(PID.TID 0000.0001)                   F
(PID.TID 0000.0001)     ;
(PID.TID 0000.0001) PTRACERS_useKPP = /* apply KPP scheme */
(PID.TID 0000.0001)                   T
(PID.TID 0000.0001)     ;
(PID.TID 0000.0001) PTRACERS_ref = /* Reference vertical profile */
(PID.TID 0000.0001)    35 @  0.000000000000000E+00              /* K =  1: 35 */
(PID.TID 0000.0001)     ;
(PID.TID 0000.0001) PTRACERS_EvPrRn =/* tracer conc. in Evap. & Rain */
(PID.TID 0000.0001)                 1.234567000000000E+05
(PID.TID 0000.0001)     ;
(PID.TID 0000.0001)  -----------------------------------
(PID.TID 0000.0001)  tracer number :   14
(PID.TID 0000.0001) PTRACERS_names = /* Tracer short name */
(PID.TID 0000.0001)               'POP'
(PID.TID 0000.0001)     ;
(PID.TID 0000.0001) PTRACERS_long_names = /* Tracer long name */
(PID.TID 0000.0001)               ''
(PID.TID 0000.0001)     ;
(PID.TID 0000.0001) PTRACERS_ioLabel = /* tracer IO Label */
(PID.TID 0000.0001)               '14'
(PID.TID 0000.0001)     ;
(PID.TID 0000.0001) PTRACERS_advScheme = /* Advection Scheme */
(PID.TID 0000.0001)                      33
(PID.TID 0000.0001)     ;
(PID.TID 0000.0001) PTRACERS_SOM_Advection = /* tracer uses SOM advection scheme */
(PID.TID 0000.0001)                   F
(PID.TID 0000.0001)     ;
(PID.TID 0000.0001) PTRACERS_ImplVertAdv = /* implicit vert. advection flag */
(PID.TID 0000.0001)                   F
(PID.TID 0000.0001)     ;
(PID.TID 0000.0001) PTRACERS_diffKh = /* Laplacian Diffusivity */
(PID.TID 0000.0001)                 0.000000000000000E+00
(PID.TID 0000.0001)     ;
(PID.TID 0000.0001) PTRACERS_diffK4 = /* Biharmonic Diffusivity */
(PID.TID 0000.0001)                 0.000000000000000E+00
(PID.TID 0000.0001)     ;
(PID.TID 0000.0001) PTRACERS_diffKrNr = /* Vertical Diffusivity */
(PID.TID 0000.0001)    35 @  1.000000000000000E-05              /* K =  1: 35 */
(PID.TID 0000.0001)     ;
(PID.TID 0000.0001) PTRACERS_useGMRedi = /* apply GM-Redi */
(PID.TID 0000.0001)                   F
(PID.TID 0000.0001)     ;
(PID.TID 0000.0001) PTRACERS_useDWNSLP = /* apply DOWN-SLOPE Flow */
(PID.TID 0000.0001)                   F
(PID.TID 0000.0001)     ;
(PID.TID 0000.0001) PTRACERS_useKPP = /* apply KPP scheme */
(PID.TID 0000.0001)                   T
(PID.TID 0000.0001)     ;
(PID.TID 0000.0001) PTRACERS_ref = /* Reference vertical profile */
(PID.TID 0000.0001)    35 @  0.000000000000000E+00              /* K =  1: 35 */
(PID.TID 0000.0001)     ;
(PID.TID 0000.0001) PTRACERS_EvPrRn =/* tracer conc. in Evap. & Rain */
(PID.TID 0000.0001)                 1.234567000000000E+05
(PID.TID 0000.0001)     ;
(PID.TID 0000.0001)  -----------------------------------
(PID.TID 0000.0001)  tracer number :   15
(PID.TID 0000.0001) PTRACERS_names = /* Tracer short name */
(PID.TID 0000.0001)               'POSi'
(PID.TID 0000.0001)     ;
(PID.TID 0000.0001) PTRACERS_long_names = /* Tracer long name */
(PID.TID 0000.0001)               ''
(PID.TID 0000.0001)     ;
(PID.TID 0000.0001) PTRACERS_ioLabel = /* tracer IO Label */
(PID.TID 0000.0001)               '15'
(PID.TID 0000.0001)     ;
(PID.TID 0000.0001) PTRACERS_advScheme = /* Advection Scheme */
(PID.TID 0000.0001)                      33
(PID.TID 0000.0001)     ;
(PID.TID 0000.0001) PTRACERS_SOM_Advection = /* tracer uses SOM advection scheme */
(PID.TID 0000.0001)                   F
(PID.TID 0000.0001)     ;
(PID.TID 0000.0001) PTRACERS_ImplVertAdv = /* implicit vert. advection flag */
(PID.TID 0000.0001)                   F
(PID.TID 0000.0001)     ;
(PID.TID 0000.0001) PTRACERS_diffKh = /* Laplacian Diffusivity */
(PID.TID 0000.0001)                 0.000000000000000E+00
(PID.TID 0000.0001)     ;
(PID.TID 0000.0001) PTRACERS_diffK4 = /* Biharmonic Diffusivity */
(PID.TID 0000.0001)                 0.000000000000000E+00
(PID.TID 0000.0001)     ;
(PID.TID 0000.0001) PTRACERS_diffKrNr = /* Vertical Diffusivity */
(PID.TID 0000.0001)    35 @  1.000000000000000E-05              /* K =  1: 35 */
(PID.TID 0000.0001)     ;
(PID.TID 0000.0001) PTRACERS_useGMRedi = /* apply GM-Redi */
(PID.TID 0000.0001)                   F
(PID.TID 0000.0001)     ;
(PID.TID 0000.0001) PTRACERS_useDWNSLP = /* apply DOWN-SLOPE Flow */
(PID.TID 0000.0001)                   F
(PID.TID 0000.0001)     ;
(PID.TID 0000.0001) PTRACERS_useKPP = /* apply KPP scheme */
(PID.TID 0000.0001)                   T
(PID.TID 0000.0001)     ;
(PID.TID 0000.0001) PTRACERS_ref = /* Reference vertical profile */
(PID.TID 0000.0001)    35 @  0.000000000000000E+00              /* K =  1: 35 */
(PID.TID 0000.0001)     ;
(PID.TID 0000.0001) PTRACERS_EvPrRn =/* tracer conc. in Evap. & Rain */
(PID.TID 0000.0001)                 1.234567000000000E+05
(PID.TID 0000.0001)     ;
(PID.TID 0000.0001)  -----------------------------------
(PID.TID 0000.0001)  tracer number :   16
(PID.TID 0000.0001) PTRACERS_names = /* Tracer short name */
(PID.TID 0000.0001)               'POFe'
(PID.TID 0000.0001)     ;
(PID.TID 0000.0001) PTRACERS_long_names = /* Tracer long name */
(PID.TID 0000.0001)               ''
(PID.TID 0000.0001)     ;
(PID.TID 0000.0001) PTRACERS_ioLabel = /* tracer IO Label */
(PID.TID 0000.0001)               '16'
(PID.TID 0000.0001)     ;
(PID.TID 0000.0001) PTRACERS_advScheme = /* Advection Scheme */
(PID.TID 0000.0001)                      33
(PID.TID 0000.0001)     ;
(PID.TID 0000.0001) PTRACERS_SOM_Advection = /* tracer uses SOM advection scheme */
(PID.TID 0000.0001)                   F
(PID.TID 0000.0001)     ;
(PID.TID 0000.0001) PTRACERS_ImplVertAdv = /* implicit vert. advection flag */
(PID.TID 0000.0001)                   F
(PID.TID 0000.0001)     ;
(PID.TID 0000.0001) PTRACERS_diffKh = /* Laplacian Diffusivity */
(PID.TID 0000.0001)                 0.000000000000000E+00
(PID.TID 0000.0001)     ;
(PID.TID 0000.0001) PTRACERS_diffK4 = /* Biharmonic Diffusivity */
(PID.TID 0000.0001)                 0.000000000000000E+00
(PID.TID 0000.0001)     ;
(PID.TID 0000.0001) PTRACERS_diffKrNr = /* Vertical Diffusivity */
(PID.TID 0000.0001)    35 @  1.000000000000000E-05              /* K =  1: 35 */
(PID.TID 0000.0001)     ;
(PID.TID 0000.0001) PTRACERS_useGMRedi = /* apply GM-Redi */
(PID.TID 0000.0001)                   F
(PID.TID 0000.0001)     ;
(PID.TID 0000.0001) PTRACERS_useDWNSLP = /* apply DOWN-SLOPE Flow */
(PID.TID 0000.0001)                   F
(PID.TID 0000.0001)     ;
(PID.TID 0000.0001) PTRACERS_useKPP = /* apply KPP scheme */
(PID.TID 0000.0001)                   T
(PID.TID 0000.0001)     ;
(PID.TID 0000.0001) PTRACERS_ref = /* Reference vertical profile */
(PID.TID 0000.0001)    35 @  0.000000000000000E+00              /* K =  1: 35 */
(PID.TID 0000.0001)     ;
(PID.TID 0000.0001) PTRACERS_EvPrRn =/* tracer conc. in Evap. & Rain */
(PID.TID 0000.0001)                 1.234567000000000E+05
(PID.TID 0000.0001)     ;
(PID.TID 0000.0001)  -----------------------------------
(PID.TID 0000.0001)  tracer number :   17
(PID.TID 0000.0001) PTRACERS_names = /* Tracer short name */
(PID.TID 0000.0001)               'PIC'
(PID.TID 0000.0001)     ;
(PID.TID 0000.0001) PTRACERS_long_names = /* Tracer long name */
(PID.TID 0000.0001)               ''
(PID.TID 0000.0001)     ;
(PID.TID 0000.0001) PTRACERS_ioLabel = /* tracer IO Label */
(PID.TID 0000.0001)               '17'
(PID.TID 0000.0001)     ;
(PID.TID 0000.0001) PTRACERS_advScheme = /* Advection Scheme */
(PID.TID 0000.0001)                      33
(PID.TID 0000.0001)     ;
(PID.TID 0000.0001) PTRACERS_SOM_Advection = /* tracer uses SOM advection scheme */
(PID.TID 0000.0001)                   F
(PID.TID 0000.0001)     ;
(PID.TID 0000.0001) PTRACERS_ImplVertAdv = /* implicit vert. advection flag */
(PID.TID 0000.0001)                   F
(PID.TID 0000.0001)     ;
(PID.TID 0000.0001) PTRACERS_diffKh = /* Laplacian Diffusivity */
(PID.TID 0000.0001)                 0.000000000000000E+00
(PID.TID 0000.0001)     ;
(PID.TID 0000.0001) PTRACERS_diffK4 = /* Biharmonic Diffusivity */
(PID.TID 0000.0001)                 0.000000000000000E+00
(PID.TID 0000.0001)     ;
(PID.TID 0000.0001) PTRACERS_diffKrNr = /* Vertical Diffusivity */
(PID.TID 0000.0001)    35 @  1.000000000000000E-05              /* K =  1: 35 */
(PID.TID 0000.0001)     ;
(PID.TID 0000.0001) PTRACERS_useGMRedi = /* apply GM-Redi */
(PID.TID 0000.0001)                   F
(PID.TID 0000.0001)     ;
(PID.TID 0000.0001) PTRACERS_useDWNSLP = /* apply DOWN-SLOPE Flow */
(PID.TID 0000.0001)                   F
(PID.TID 0000.0001)     ;
(PID.TID 0000.0001) PTRACERS_useKPP = /* apply KPP scheme */
(PID.TID 0000.0001)                   T
(PID.TID 0000.0001)     ;
(PID.TID 0000.0001) PTRACERS_ref = /* Reference vertical profile */
(PID.TID 0000.0001)    35 @  0.000000000000000E+00              /* K =  1: 35 */
(PID.TID 0000.0001)     ;
(PID.TID 0000.0001) PTRACERS_EvPrRn =/* tracer conc. in Evap. & Rain */
(PID.TID 0000.0001)                 1.234567000000000E+05
(PID.TID 0000.0001)     ;
(PID.TID 0000.0001)  -----------------------------------
(PID.TID 0000.0001)  tracer number :   18
(PID.TID 0000.0001) PTRACERS_names = /* Tracer short name */
(PID.TID 0000.0001)               'ALK'
(PID.TID 0000.0001)     ;
(PID.TID 0000.0001) PTRACERS_long_names = /* Tracer long name */
(PID.TID 0000.0001)               ''
(PID.TID 0000.0001)     ;
(PID.TID 0000.0001) PTRACERS_ioLabel = /* tracer IO Label */
(PID.TID 0000.0001)               '18'
(PID.TID 0000.0001)     ;
(PID.TID 0000.0001) PTRACERS_advScheme = /* Advection Scheme */
(PID.TID 0000.0001)                      33
(PID.TID 0000.0001)     ;
(PID.TID 0000.0001) PTRACERS_SOM_Advection = /* tracer uses SOM advection scheme */
(PID.TID 0000.0001)                   F
(PID.TID 0000.0001)     ;
(PID.TID 0000.0001) PTRACERS_ImplVertAdv = /* implicit vert. advection flag */
(PID.TID 0000.0001)                   F
(PID.TID 0000.0001)     ;
(PID.TID 0000.0001) PTRACERS_diffKh = /* Laplacian Diffusivity */
(PID.TID 0000.0001)                 0.000000000000000E+00
(PID.TID 0000.0001)     ;
(PID.TID 0000.0001) PTRACERS_diffK4 = /* Biharmonic Diffusivity */
(PID.TID 0000.0001)                 0.000000000000000E+00
(PID.TID 0000.0001)     ;
(PID.TID 0000.0001) PTRACERS_diffKrNr = /* Vertical Diffusivity */
(PID.TID 0000.0001)    35 @  1.000000000000000E-05              /* K =  1: 35 */
(PID.TID 0000.0001)     ;
(PID.TID 0000.0001) PTRACERS_useGMRedi = /* apply GM-Redi */
(PID.TID 0000.0001)                   F
(PID.TID 0000.0001)     ;
(PID.TID 0000.0001) PTRACERS_useDWNSLP = /* apply DOWN-SLOPE Flow */
(PID.TID 0000.0001)                   F
(PID.TID 0000.0001)     ;
(PID.TID 0000.0001) PTRACERS_useKPP = /* apply KPP scheme */
(PID.TID 0000.0001)                   T
(PID.TID 0000.0001)     ;
(PID.TID 0000.0001) PTRACERS_ref = /* Reference vertical profile */
(PID.TID 0000.0001)    35 @  0.000000000000000E+00              /* K =  1: 35 */
(PID.TID 0000.0001)     ;
(PID.TID 0000.0001) PTRACERS_EvPrRn =/* tracer conc. in Evap. & Rain */
(PID.TID 0000.0001)                 1.234567000000000E+05
(PID.TID 0000.0001)     ;
(PID.TID 0000.0001)  -----------------------------------
(PID.TID 0000.0001)  tracer number :   19
(PID.TID 0000.0001) PTRACERS_names = /* Tracer short name */
(PID.TID 0000.0001)               'O2'
(PID.TID 0000.0001)     ;
(PID.TID 0000.0001) PTRACERS_long_names = /* Tracer long name */
(PID.TID 0000.0001)               ''
(PID.TID 0000.0001)     ;
(PID.TID 0000.0001) PTRACERS_ioLabel = /* tracer IO Label */
(PID.TID 0000.0001)               '19'
(PID.TID 0000.0001)     ;
(PID.TID 0000.0001) PTRACERS_advScheme = /* Advection Scheme */
(PID.TID 0000.0001)                      33
(PID.TID 0000.0001)     ;
(PID.TID 0000.0001) PTRACERS_SOM_Advection = /* tracer uses SOM advection scheme */
(PID.TID 0000.0001)                   F
(PID.TID 0000.0001)     ;
(PID.TID 0000.0001) PTRACERS_ImplVertAdv = /* implicit vert. advection flag */
(PID.TID 0000.0001)                   F
(PID.TID 0000.0001)     ;
(PID.TID 0000.0001) PTRACERS_diffKh = /* Laplacian Diffusivity */
(PID.TID 0000.0001)                 0.000000000000000E+00
(PID.TID 0000.0001)     ;
(PID.TID 0000.0001) PTRACERS_diffK4 = /* Biharmonic Diffusivity */
(PID.TID 0000.0001)                 0.000000000000000E+00
(PID.TID 0000.0001)     ;
(PID.TID 0000.0001) PTRACERS_diffKrNr = /* Vertical Diffusivity */
(PID.TID 0000.0001)    35 @  1.000000000000000E-05              /* K =  1: 35 */
(PID.TID 0000.0001)     ;
(PID.TID 0000.0001) PTRACERS_useGMRedi = /* apply GM-Redi */
(PID.TID 0000.0001)                   F
(PID.TID 0000.0001)     ;
(PID.TID 0000.0001) PTRACERS_useDWNSLP = /* apply DOWN-SLOPE Flow */
(PID.TID 0000.0001)                   F
(PID.TID 0000.0001)     ;
(PID.TID 0000.0001) PTRACERS_useKPP = /* apply KPP scheme */
(PID.TID 0000.0001)                   T
(PID.TID 0000.0001)     ;
(PID.TID 0000.0001) PTRACERS_ref = /* Reference vertical profile */
(PID.TID 0000.0001)    35 @  0.000000000000000E+00              /* K =  1: 35 */
(PID.TID 0000.0001)     ;
(PID.TID 0000.0001) PTRACERS_EvPrRn =/* tracer conc. in Evap. & Rain */
(PID.TID 0000.0001)                 1.234567000000000E+05
(PID.TID 0000.0001)     ;
(PID.TID 0000.0001)  -----------------------------------
(PID.TID 0000.0001)  tracer number :   20
(PID.TID 0000.0001) PTRACERS_names = /* Tracer short name */
(PID.TID 0000.0001)               'c1'
(PID.TID 0000.0001)     ;
(PID.TID 0000.0001) PTRACERS_long_names = /* Tracer long name */
(PID.TID 0000.0001)               ''
(PID.TID 0000.0001)     ;
(PID.TID 0000.0001) PTRACERS_ioLabel = /* tracer IO Label */
(PID.TID 0000.0001)               '20'
(PID.TID 0000.0001)     ;
(PID.TID 0000.0001) PTRACERS_advScheme = /* Advection Scheme */
(PID.TID 0000.0001)                      33
(PID.TID 0000.0001)     ;
(PID.TID 0000.0001) PTRACERS_SOM_Advection = /* tracer uses SOM advection scheme */
(PID.TID 0000.0001)                   F
(PID.TID 0000.0001)     ;
(PID.TID 0000.0001) PTRACERS_ImplVertAdv = /* implicit vert. advection flag */
(PID.TID 0000.0001)                   F
(PID.TID 0000.0001)     ;
(PID.TID 0000.0001) PTRACERS_diffKh = /* Laplacian Diffusivity */
(PID.TID 0000.0001)                 0.000000000000000E+00
(PID.TID 0000.0001)     ;
(PID.TID 0000.0001) PTRACERS_diffK4 = /* Biharmonic Diffusivity */
(PID.TID 0000.0001)                 0.000000000000000E+00
(PID.TID 0000.0001)     ;
(PID.TID 0000.0001) PTRACERS_diffKrNr = /* Vertical Diffusivity */
(PID.TID 0000.0001)    35 @  1.000000000000000E-05              /* K =  1: 35 */
(PID.TID 0000.0001)     ;
(PID.TID 0000.0001) PTRACERS_useGMRedi = /* apply GM-Redi */
(PID.TID 0000.0001)                   F
(PID.TID 0000.0001)     ;
(PID.TID 0000.0001) PTRACERS_useDWNSLP = /* apply DOWN-SLOPE Flow */
(PID.TID 0000.0001)                   F
(PID.TID 0000.0001)     ;
(PID.TID 0000.0001) PTRACERS_useKPP = /* apply KPP scheme */
(PID.TID 0000.0001)                   T
(PID.TID 0000.0001)     ;
(PID.TID 0000.0001) PTRACERS_ref = /* Reference vertical profile */
(PID.TID 0000.0001)    35 @  0.000000000000000E+00              /* K =  1: 35 */
(PID.TID 0000.0001)     ;
(PID.TID 0000.0001) PTRACERS_EvPrRn =/* tracer conc. in Evap. & Rain */
(PID.TID 0000.0001)                 1.234567000000000E+05
(PID.TID 0000.0001)     ;
(PID.TID 0000.0001)  -----------------------------------
(PID.TID 0000.0001)  tracer number :   21
(PID.TID 0000.0001) PTRACERS_names = /* Tracer short name */
(PID.TID 0000.0001)               'c2'
(PID.TID 0000.0001)     ;
(PID.TID 0000.0001) PTRACERS_long_names = /* Tracer long name */
(PID.TID 0000.0001)               ''
(PID.TID 0000.0001)     ;
(PID.TID 0000.0001) PTRACERS_ioLabel = /* tracer IO Label */
(PID.TID 0000.0001)               '21'
(PID.TID 0000.0001)     ;
(PID.TID 0000.0001) PTRACERS_advScheme = /* Advection Scheme */
(PID.TID 0000.0001)                      33
(PID.TID 0000.0001)     ;
(PID.TID 0000.0001) PTRACERS_SOM_Advection = /* tracer uses SOM advection scheme */
(PID.TID 0000.0001)                   F
(PID.TID 0000.0001)     ;
(PID.TID 0000.0001) PTRACERS_ImplVertAdv = /* implicit vert. advection flag */
(PID.TID 0000.0001)                   F
(PID.TID 0000.0001)     ;
(PID.TID 0000.0001) PTRACERS_diffKh = /* Laplacian Diffusivity */
(PID.TID 0000.0001)                 0.000000000000000E+00
(PID.TID 0000.0001)     ;
(PID.TID 0000.0001) PTRACERS_diffK4 = /* Biharmonic Diffusivity */
(PID.TID 0000.0001)                 0.000000000000000E+00
(PID.TID 0000.0001)     ;
(PID.TID 0000.0001) PTRACERS_diffKrNr = /* Vertical Diffusivity */
(PID.TID 0000.0001)    35 @  1.000000000000000E-05              /* K =  1: 35 */
(PID.TID 0000.0001)     ;
(PID.TID 0000.0001) PTRACERS_useGMRedi = /* apply GM-Redi */
(PID.TID 0000.0001)                   F
(PID.TID 0000.0001)     ;
(PID.TID 0000.0001) PTRACERS_useDWNSLP = /* apply DOWN-SLOPE Flow */
(PID.TID 0000.0001)                   F
(PID.TID 0000.0001)     ;
(PID.TID 0000.0001) PTRACERS_useKPP = /* apply KPP scheme */
(PID.TID 0000.0001)                   T
(PID.TID 0000.0001)     ;
(PID.TID 0000.0001) PTRACERS_ref = /* Reference vertical profile */
(PID.TID 0000.0001)    35 @  0.000000000000000E+00              /* K =  1: 35 */
(PID.TID 0000.0001)     ;
(PID.TID 0000.0001) PTRACERS_EvPrRn =/* tracer conc. in Evap. & Rain */
(PID.TID 0000.0001)                 1.234567000000000E+05
(PID.TID 0000.0001)     ;
(PID.TID 0000.0001)  -----------------------------------
(PID.TID 0000.0001)  tracer number :   22
(PID.TID 0000.0001) PTRACERS_names = /* Tracer short name */
(PID.TID 0000.0001)               'c3'
(PID.TID 0000.0001)     ;
(PID.TID 0000.0001) PTRACERS_long_names = /* Tracer long name */
(PID.TID 0000.0001)               ''
(PID.TID 0000.0001)     ;
(PID.TID 0000.0001) PTRACERS_ioLabel = /* tracer IO Label */
(PID.TID 0000.0001)               '22'
(PID.TID 0000.0001)     ;
(PID.TID 0000.0001) PTRACERS_advScheme = /* Advection Scheme */
(PID.TID 0000.0001)                      33
(PID.TID 0000.0001)     ;
(PID.TID 0000.0001) PTRACERS_SOM_Advection = /* tracer uses SOM advection scheme */
(PID.TID 0000.0001)                   F
(PID.TID 0000.0001)     ;
(PID.TID 0000.0001) PTRACERS_ImplVertAdv = /* implicit vert. advection flag */
(PID.TID 0000.0001)                   F
(PID.TID 0000.0001)     ;
(PID.TID 0000.0001) PTRACERS_diffKh = /* Laplacian Diffusivity */
(PID.TID 0000.0001)                 0.000000000000000E+00
(PID.TID 0000.0001)     ;
(PID.TID 0000.0001) PTRACERS_diffK4 = /* Biharmonic Diffusivity */
(PID.TID 0000.0001)                 0.000000000000000E+00
(PID.TID 0000.0001)     ;
(PID.TID 0000.0001) PTRACERS_diffKrNr = /* Vertical Diffusivity */
(PID.TID 0000.0001)    35 @  1.000000000000000E-05              /* K =  1: 35 */
(PID.TID 0000.0001)     ;
(PID.TID 0000.0001) PTRACERS_useGMRedi = /* apply GM-Redi */
(PID.TID 0000.0001)                   F
(PID.TID 0000.0001)     ;
(PID.TID 0000.0001) PTRACERS_useDWNSLP = /* apply DOWN-SLOPE Flow */
(PID.TID 0000.0001)                   F
(PID.TID 0000.0001)     ;
(PID.TID 0000.0001) PTRACERS_useKPP = /* apply KPP scheme */
(PID.TID 0000.0001)                   T
(PID.TID 0000.0001)     ;
(PID.TID 0000.0001) PTRACERS_ref = /* Reference vertical profile */
(PID.TID 0000.0001)    35 @  0.000000000000000E+00              /* K =  1: 35 */
(PID.TID 0000.0001)     ;
(PID.TID 0000.0001) PTRACERS_EvPrRn =/* tracer conc. in Evap. & Rain */
(PID.TID 0000.0001)                 1.234567000000000E+05
(PID.TID 0000.0001)     ;
(PID.TID 0000.0001)  -----------------------------------
(PID.TID 0000.0001)  tracer number :   23
(PID.TID 0000.0001) PTRACERS_names = /* Tracer short name */
(PID.TID 0000.0001)               'c4'
(PID.TID 0000.0001)     ;
(PID.TID 0000.0001) PTRACERS_long_names = /* Tracer long name */
(PID.TID 0000.0001)               ''
(PID.TID 0000.0001)     ;
(PID.TID 0000.0001) PTRACERS_ioLabel = /* tracer IO Label */
(PID.TID 0000.0001)               '23'
(PID.TID 0000.0001)     ;
(PID.TID 0000.0001) PTRACERS_advScheme = /* Advection Scheme */
(PID.TID 0000.0001)                      33
(PID.TID 0000.0001)     ;
(PID.TID 0000.0001) PTRACERS_SOM_Advection = /* tracer uses SOM advection scheme */
(PID.TID 0000.0001)                   F
(PID.TID 0000.0001)     ;
(PID.TID 0000.0001) PTRACERS_ImplVertAdv = /* implicit vert. advection flag */
(PID.TID 0000.0001)                   F
(PID.TID 0000.0001)     ;
(PID.TID 0000.0001) PTRACERS_diffKh = /* Laplacian Diffusivity */
(PID.TID 0000.0001)                 0.000000000000000E+00
(PID.TID 0000.0001)     ;
(PID.TID 0000.0001) PTRACERS_diffK4 = /* Biharmonic Diffusivity */
(PID.TID 0000.0001)                 0.000000000000000E+00
(PID.TID 0000.0001)     ;
(PID.TID 0000.0001) PTRACERS_diffKrNr = /* Vertical Diffusivity */
(PID.TID 0000.0001)    35 @  1.000000000000000E-05              /* K =  1: 35 */
(PID.TID 0000.0001)     ;
(PID.TID 0000.0001) PTRACERS_useGMRedi = /* apply GM-Redi */
(PID.TID 0000.0001)                   F
(PID.TID 0000.0001)     ;
(PID.TID 0000.0001) PTRACERS_useDWNSLP = /* apply DOWN-SLOPE Flow */
(PID.TID 0000.0001)                   F
(PID.TID 0000.0001)     ;
(PID.TID 0000.0001) PTRACERS_useKPP = /* apply KPP scheme */
(PID.TID 0000.0001)                   T
(PID.TID 0000.0001)     ;
(PID.TID 0000.0001) PTRACERS_ref = /* Reference vertical profile */
(PID.TID 0000.0001)    35 @  0.000000000000000E+00              /* K =  1: 35 */
(PID.TID 0000.0001)     ;
(PID.TID 0000.0001) PTRACERS_EvPrRn =/* tracer conc. in Evap. & Rain */
(PID.TID 0000.0001)                 1.234567000000000E+05
(PID.TID 0000.0001)     ;
(PID.TID 0000.0001)  -----------------------------------
(PID.TID 0000.0001)  tracer number :   24
(PID.TID 0000.0001) PTRACERS_names = /* Tracer short name */
(PID.TID 0000.0001)               'c5'
(PID.TID 0000.0001)     ;
(PID.TID 0000.0001) PTRACERS_long_names = /* Tracer long name */
(PID.TID 0000.0001)               ''
(PID.TID 0000.0001)     ;
(PID.TID 0000.0001) PTRACERS_ioLabel = /* tracer IO Label */
(PID.TID 0000.0001)               '24'
(PID.TID 0000.0001)     ;
(PID.TID 0000.0001) PTRACERS_advScheme = /* Advection Scheme */
(PID.TID 0000.0001)                      33
(PID.TID 0000.0001)     ;
(PID.TID 0000.0001) PTRACERS_SOM_Advection = /* tracer uses SOM advection scheme */
(PID.TID 0000.0001)                   F
(PID.TID 0000.0001)     ;
(PID.TID 0000.0001) PTRACERS_ImplVertAdv = /* implicit vert. advection flag */
(PID.TID 0000.0001)                   F
(PID.TID 0000.0001)     ;
(PID.TID 0000.0001) PTRACERS_diffKh = /* Laplacian Diffusivity */
(PID.TID 0000.0001)                 0.000000000000000E+00
(PID.TID 0000.0001)     ;
(PID.TID 0000.0001) PTRACERS_diffK4 = /* Biharmonic Diffusivity */
(PID.TID 0000.0001)                 0.000000000000000E+00
(PID.TID 0000.0001)     ;
(PID.TID 0000.0001) PTRACERS_diffKrNr = /* Vertical Diffusivity */
(PID.TID 0000.0001)    35 @  1.000000000000000E-05              /* K =  1: 35 */
(PID.TID 0000.0001)     ;
(PID.TID 0000.0001) PTRACERS_useGMRedi = /* apply GM-Redi */
(PID.TID 0000.0001)                   F
(PID.TID 0000.0001)     ;
(PID.TID 0000.0001) PTRACERS_useDWNSLP = /* apply DOWN-SLOPE Flow */
(PID.TID 0000.0001)                   F
(PID.TID 0000.0001)     ;
(PID.TID 0000.0001) PTRACERS_useKPP = /* apply KPP scheme */
(PID.TID 0000.0001)                   T
(PID.TID 0000.0001)     ;
(PID.TID 0000.0001) PTRACERS_ref = /* Reference vertical profile */
(PID.TID 0000.0001)    35 @  0.000000000000000E+00              /* K =  1: 35 */
(PID.TID 0000.0001)     ;
(PID.TID 0000.0001) PTRACERS_EvPrRn =/* tracer conc. in Evap. & Rain */
(PID.TID 0000.0001)                 1.234567000000000E+05
(PID.TID 0000.0001)     ;
(PID.TID 0000.0001)  -----------------------------------
(PID.TID 0000.0001)  tracer number :   25
(PID.TID 0000.0001) PTRACERS_names = /* Tracer short name */
(PID.TID 0000.0001)               'c6'
(PID.TID 0000.0001)     ;
(PID.TID 0000.0001) PTRACERS_long_names = /* Tracer long name */
(PID.TID 0000.0001)               ''
(PID.TID 0000.0001)     ;
(PID.TID 0000.0001) PTRACERS_ioLabel = /* tracer IO Label */
(PID.TID 0000.0001)               '25'
(PID.TID 0000.0001)     ;
(PID.TID 0000.0001) PTRACERS_advScheme = /* Advection Scheme */
(PID.TID 0000.0001)                      33
(PID.TID 0000.0001)     ;
(PID.TID 0000.0001) PTRACERS_SOM_Advection = /* tracer uses SOM advection scheme */
(PID.TID 0000.0001)                   F
(PID.TID 0000.0001)     ;
(PID.TID 0000.0001) PTRACERS_ImplVertAdv = /* implicit vert. advection flag */
(PID.TID 0000.0001)                   F
(PID.TID 0000.0001)     ;
(PID.TID 0000.0001) PTRACERS_diffKh = /* Laplacian Diffusivity */
(PID.TID 0000.0001)                 0.000000000000000E+00
(PID.TID 0000.0001)     ;
(PID.TID 0000.0001) PTRACERS_diffK4 = /* Biharmonic Diffusivity */
(PID.TID 0000.0001)                 0.000000000000000E+00
(PID.TID 0000.0001)     ;
(PID.TID 0000.0001) PTRACERS_diffKrNr = /* Vertical Diffusivity */
(PID.TID 0000.0001)    35 @  1.000000000000000E-05              /* K =  1: 35 */
(PID.TID 0000.0001)     ;
(PID.TID 0000.0001) PTRACERS_useGMRedi = /* apply GM-Redi */
(PID.TID 0000.0001)                   F
(PID.TID 0000.0001)     ;
(PID.TID 0000.0001) PTRACERS_useDWNSLP = /* apply DOWN-SLOPE Flow */
(PID.TID 0000.0001)                   F
(PID.TID 0000.0001)     ;
(PID.TID 0000.0001) PTRACERS_useKPP = /* apply KPP scheme */
(PID.TID 0000.0001)                   T
(PID.TID 0000.0001)     ;
(PID.TID 0000.0001) PTRACERS_ref = /* Reference vertical profile */
(PID.TID 0000.0001)    35 @  0.000000000000000E+00              /* K =  1: 35 */
(PID.TID 0000.0001)     ;
(PID.TID 0000.0001) PTRACERS_EvPrRn =/* tracer conc. in Evap. & Rain */
(PID.TID 0000.0001)                 1.234567000000000E+05
(PID.TID 0000.0001)     ;
(PID.TID 0000.0001)  -----------------------------------
(PID.TID 0000.0001)  tracer number :   26
(PID.TID 0000.0001) PTRACERS_names = /* Tracer short name */
(PID.TID 0000.0001)               'c7'
(PID.TID 0000.0001)     ;
(PID.TID 0000.0001) PTRACERS_long_names = /* Tracer long name */
(PID.TID 0000.0001)               ''
(PID.TID 0000.0001)     ;
(PID.TID 0000.0001) PTRACERS_ioLabel = /* tracer IO Label */
(PID.TID 0000.0001)               '26'
(PID.TID 0000.0001)     ;
(PID.TID 0000.0001) PTRACERS_advScheme = /* Advection Scheme */
(PID.TID 0000.0001)                      33
(PID.TID 0000.0001)     ;
(PID.TID 0000.0001) PTRACERS_SOM_Advection = /* tracer uses SOM advection scheme */
(PID.TID 0000.0001)                   F
(PID.TID 0000.0001)     ;
(PID.TID 0000.0001) PTRACERS_ImplVertAdv = /* implicit vert. advection flag */
(PID.TID 0000.0001)                   F
(PID.TID 0000.0001)     ;
(PID.TID 0000.0001) PTRACERS_diffKh = /* Laplacian Diffusivity */
(PID.TID 0000.0001)                 0.000000000000000E+00
(PID.TID 0000.0001)     ;
(PID.TID 0000.0001) PTRACERS_diffK4 = /* Biharmonic Diffusivity */
(PID.TID 0000.0001)                 0.000000000000000E+00
(PID.TID 0000.0001)     ;
(PID.TID 0000.0001) PTRACERS_diffKrNr = /* Vertical Diffusivity */
(PID.TID 0000.0001)    35 @  1.000000000000000E-05              /* K =  1: 35 */
(PID.TID 0000.0001)     ;
(PID.TID 0000.0001) PTRACERS_useGMRedi = /* apply GM-Redi */
(PID.TID 0000.0001)                   F
(PID.TID 0000.0001)     ;
(PID.TID 0000.0001) PTRACERS_useDWNSLP = /* apply DOWN-SLOPE Flow */
(PID.TID 0000.0001)                   F
(PID.TID 0000.0001)     ;
(PID.TID 0000.0001) PTRACERS_useKPP = /* apply KPP scheme */
(PID.TID 0000.0001)                   T
(PID.TID 0000.0001)     ;
(PID.TID 0000.0001) PTRACERS_ref = /* Reference vertical profile */
(PID.TID 0000.0001)    35 @  0.000000000000000E+00              /* K =  1: 35 */
(PID.TID 0000.0001)     ;
(PID.TID 0000.0001) PTRACERS_EvPrRn =/* tracer conc. in Evap. & Rain */
(PID.TID 0000.0001)                 1.234567000000000E+05
(PID.TID 0000.0001)     ;
(PID.TID 0000.0001)  -----------------------------------
(PID.TID 0000.0001)  tracer number :   27
(PID.TID 0000.0001) PTRACERS_names = /* Tracer short name */
(PID.TID 0000.0001)               'c8'
(PID.TID 0000.0001)     ;
(PID.TID 0000.0001) PTRACERS_long_names = /* Tracer long name */
(PID.TID 0000.0001)               ''
(PID.TID 0000.0001)     ;
(PID.TID 0000.0001) PTRACERS_ioLabel = /* tracer IO Label */
(PID.TID 0000.0001)               '27'
(PID.TID 0000.0001)     ;
(PID.TID 0000.0001) PTRACERS_advScheme = /* Advection Scheme */
(PID.TID 0000.0001)                      33
(PID.TID 0000.0001)     ;
(PID.TID 0000.0001) PTRACERS_SOM_Advection = /* tracer uses SOM advection scheme */
(PID.TID 0000.0001)                   F
(PID.TID 0000.0001)     ;
(PID.TID 0000.0001) PTRACERS_ImplVertAdv = /* implicit vert. advection flag */
(PID.TID 0000.0001)                   F
(PID.TID 0000.0001)     ;
(PID.TID 0000.0001) PTRACERS_diffKh = /* Laplacian Diffusivity */
(PID.TID 0000.0001)                 0.000000000000000E+00
(PID.TID 0000.0001)     ;
(PID.TID 0000.0001) PTRACERS_diffK4 = /* Biharmonic Diffusivity */
(PID.TID 0000.0001)                 0.000000000000000E+00
(PID.TID 0000.0001)     ;
(PID.TID 0000.0001) PTRACERS_diffKrNr = /* Vertical Diffusivity */
(PID.TID 0000.0001)    35 @  1.000000000000000E-05              /* K =  1: 35 */
(PID.TID 0000.0001)     ;
(PID.TID 0000.0001) PTRACERS_useGMRedi = /* apply GM-Redi */
(PID.TID 0000.0001)                   F
(PID.TID 0000.0001)     ;
(PID.TID 0000.0001) PTRACERS_useDWNSLP = /* apply DOWN-SLOPE Flow */
(PID.TID 0000.0001)                   F
(PID.TID 0000.0001)     ;
(PID.TID 0000.0001) PTRACERS_useKPP = /* apply KPP scheme */
(PID.TID 0000.0001)                   T
(PID.TID 0000.0001)     ;
(PID.TID 0000.0001) PTRACERS_ref = /* Reference vertical profile */
(PID.TID 0000.0001)    35 @  0.000000000000000E+00              /* K =  1: 35 */
(PID.TID 0000.0001)     ;
(PID.TID 0000.0001) PTRACERS_EvPrRn =/* tracer conc. in Evap. & Rain */
(PID.TID 0000.0001)                 1.234567000000000E+05
(PID.TID 0000.0001)     ;
(PID.TID 0000.0001)  -----------------------------------
(PID.TID 0000.0001)  tracer number :   28
(PID.TID 0000.0001) PTRACERS_names = /* Tracer short name */
(PID.TID 0000.0001)               'Chl1'
(PID.TID 0000.0001)     ;
(PID.TID 0000.0001) PTRACERS_long_names = /* Tracer long name */
(PID.TID 0000.0001)               ''
(PID.TID 0000.0001)     ;
(PID.TID 0000.0001) PTRACERS_ioLabel = /* tracer IO Label */
(PID.TID 0000.0001)               '28'
(PID.TID 0000.0001)     ;
(PID.TID 0000.0001) PTRACERS_advScheme = /* Advection Scheme */
(PID.TID 0000.0001)                      33
(PID.TID 0000.0001)     ;
(PID.TID 0000.0001) PTRACERS_SOM_Advection = /* tracer uses SOM advection scheme */
(PID.TID 0000.0001)                   F
(PID.TID 0000.0001)     ;
(PID.TID 0000.0001) PTRACERS_ImplVertAdv = /* implicit vert. advection flag */
(PID.TID 0000.0001)                   F
(PID.TID 0000.0001)     ;
(PID.TID 0000.0001) PTRACERS_diffKh = /* Laplacian Diffusivity */
(PID.TID 0000.0001)                 0.000000000000000E+00
(PID.TID 0000.0001)     ;
(PID.TID 0000.0001) PTRACERS_diffK4 = /* Biharmonic Diffusivity */
(PID.TID 0000.0001)                 0.000000000000000E+00
(PID.TID 0000.0001)     ;
(PID.TID 0000.0001) PTRACERS_diffKrNr = /* Vertical Diffusivity */
(PID.TID 0000.0001)    35 @  1.000000000000000E-05              /* K =  1: 35 */
(PID.TID 0000.0001)     ;
(PID.TID 0000.0001) PTRACERS_useGMRedi = /* apply GM-Redi */
(PID.TID 0000.0001)                   F
(PID.TID 0000.0001)     ;
(PID.TID 0000.0001) PTRACERS_useDWNSLP = /* apply DOWN-SLOPE Flow */
(PID.TID 0000.0001)                   F
(PID.TID 0000.0001)     ;
(PID.TID 0000.0001) PTRACERS_useKPP = /* apply KPP scheme */
(PID.TID 0000.0001)                   T
(PID.TID 0000.0001)     ;
(PID.TID 0000.0001) PTRACERS_ref = /* Reference vertical profile */
(PID.TID 0000.0001)    35 @  0.000000000000000E+00              /* K =  1: 35 */
(PID.TID 0000.0001)     ;
(PID.TID 0000.0001) PTRACERS_EvPrRn =/* tracer conc. in Evap. & Rain */
(PID.TID 0000.0001)                 1.234567000000000E+05
(PID.TID 0000.0001)     ;
(PID.TID 0000.0001)  -----------------------------------
(PID.TID 0000.0001)  tracer number :   29
(PID.TID 0000.0001) PTRACERS_names = /* Tracer short name */
(PID.TID 0000.0001)               'Chl2'
(PID.TID 0000.0001)     ;
(PID.TID 0000.0001) PTRACERS_long_names = /* Tracer long name */
(PID.TID 0000.0001)               ''
(PID.TID 0000.0001)     ;
(PID.TID 0000.0001) PTRACERS_ioLabel = /* tracer IO Label */
(PID.TID 0000.0001)               '29'
(PID.TID 0000.0001)     ;
(PID.TID 0000.0001) PTRACERS_advScheme = /* Advection Scheme */
(PID.TID 0000.0001)                      33
(PID.TID 0000.0001)     ;
(PID.TID 0000.0001) PTRACERS_SOM_Advection = /* tracer uses SOM advection scheme */
(PID.TID 0000.0001)                   F
(PID.TID 0000.0001)     ;
(PID.TID 0000.0001) PTRACERS_ImplVertAdv = /* implicit vert. advection flag */
(PID.TID 0000.0001)                   F
(PID.TID 0000.0001)     ;
(PID.TID 0000.0001) PTRACERS_diffKh = /* Laplacian Diffusivity */
(PID.TID 0000.0001)                 0.000000000000000E+00
(PID.TID 0000.0001)     ;
(PID.TID 0000.0001) PTRACERS_diffK4 = /* Biharmonic Diffusivity */
(PID.TID 0000.0001)                 0.000000000000000E+00
(PID.TID 0000.0001)     ;
(PID.TID 0000.0001) PTRACERS_diffKrNr = /* Vertical Diffusivity */
(PID.TID 0000.0001)    35 @  1.000000000000000E-05              /* K =  1: 35 */
(PID.TID 0000.0001)     ;
(PID.TID 0000.0001) PTRACERS_useGMRedi = /* apply GM-Redi */
(PID.TID 0000.0001)                   F
(PID.TID 0000.0001)     ;
(PID.TID 0000.0001) PTRACERS_useDWNSLP = /* apply DOWN-SLOPE Flow */
(PID.TID 0000.0001)                   F
(PID.TID 0000.0001)     ;
(PID.TID 0000.0001) PTRACERS_useKPP = /* apply KPP scheme */
(PID.TID 0000.0001)                   T
(PID.TID 0000.0001)     ;
(PID.TID 0000.0001) PTRACERS_ref = /* Reference vertical profile */
(PID.TID 0000.0001)    35 @  0.000000000000000E+00              /* K =  1: 35 */
(PID.TID 0000.0001)     ;
(PID.TID 0000.0001) PTRACERS_EvPrRn =/* tracer conc. in Evap. & Rain */
(PID.TID 0000.0001)                 1.234567000000000E+05
(PID.TID 0000.0001)     ;
(PID.TID 0000.0001)  -----------------------------------
(PID.TID 0000.0001)  tracer number :   30
(PID.TID 0000.0001) PTRACERS_names = /* Tracer short name */
(PID.TID 0000.0001)               'Chl3'
(PID.TID 0000.0001)     ;
(PID.TID 0000.0001) PTRACERS_long_names = /* Tracer long name */
(PID.TID 0000.0001)               ''
(PID.TID 0000.0001)     ;
(PID.TID 0000.0001) PTRACERS_ioLabel = /* tracer IO Label */
(PID.TID 0000.0001)               '30'
(PID.TID 0000.0001)     ;
(PID.TID 0000.0001) PTRACERS_advScheme = /* Advection Scheme */
(PID.TID 0000.0001)                      33
(PID.TID 0000.0001)     ;
(PID.TID 0000.0001) PTRACERS_SOM_Advection = /* tracer uses SOM advection scheme */
(PID.TID 0000.0001)                   F
(PID.TID 0000.0001)     ;
(PID.TID 0000.0001) PTRACERS_ImplVertAdv = /* implicit vert. advection flag */
(PID.TID 0000.0001)                   F
(PID.TID 0000.0001)     ;
(PID.TID 0000.0001) PTRACERS_diffKh = /* Laplacian Diffusivity */
(PID.TID 0000.0001)                 0.000000000000000E+00
(PID.TID 0000.0001)     ;
(PID.TID 0000.0001) PTRACERS_diffK4 = /* Biharmonic Diffusivity */
(PID.TID 0000.0001)                 0.000000000000000E+00
(PID.TID 0000.0001)     ;
(PID.TID 0000.0001) PTRACERS_diffKrNr = /* Vertical Diffusivity */
(PID.TID 0000.0001)    35 @  1.000000000000000E-05              /* K =  1: 35 */
(PID.TID 0000.0001)     ;
(PID.TID 0000.0001) PTRACERS_useGMRedi = /* apply GM-Redi */
(PID.TID 0000.0001)                   F
(PID.TID 0000.0001)     ;
(PID.TID 0000.0001) PTRACERS_useDWNSLP = /* apply DOWN-SLOPE Flow */
(PID.TID 0000.0001)                   F
(PID.TID 0000.0001)     ;
(PID.TID 0000.0001) PTRACERS_useKPP = /* apply KPP scheme */
(PID.TID 0000.0001)                   T
(PID.TID 0000.0001)     ;
(PID.TID 0000.0001) PTRACERS_ref = /* Reference vertical profile */
(PID.TID 0000.0001)    35 @  0.000000000000000E+00              /* K =  1: 35 */
(PID.TID 0000.0001)     ;
(PID.TID 0000.0001) PTRACERS_EvPrRn =/* tracer conc. in Evap. & Rain */
(PID.TID 0000.0001)                 1.234567000000000E+05
(PID.TID 0000.0001)     ;
(PID.TID 0000.0001)  -----------------------------------
(PID.TID 0000.0001)  tracer number :   31
(PID.TID 0000.0001) PTRACERS_names = /* Tracer short name */
(PID.TID 0000.0001)               'Chl4'
(PID.TID 0000.0001)     ;
(PID.TID 0000.0001) PTRACERS_long_names = /* Tracer long name */
(PID.TID 0000.0001)               ''
(PID.TID 0000.0001)     ;
(PID.TID 0000.0001) PTRACERS_ioLabel = /* tracer IO Label */
(PID.TID 0000.0001)               '31'
(PID.TID 0000.0001)     ;
(PID.TID 0000.0001) PTRACERS_advScheme = /* Advection Scheme */
(PID.TID 0000.0001)                      33
(PID.TID 0000.0001)     ;
(PID.TID 0000.0001) PTRACERS_SOM_Advection = /* tracer uses SOM advection scheme */
(PID.TID 0000.0001)                   F
(PID.TID 0000.0001)     ;
(PID.TID 0000.0001) PTRACERS_ImplVertAdv = /* implicit vert. advection flag */
(PID.TID 0000.0001)                   F
(PID.TID 0000.0001)     ;
(PID.TID 0000.0001) PTRACERS_diffKh = /* Laplacian Diffusivity */
(PID.TID 0000.0001)                 0.000000000000000E+00
(PID.TID 0000.0001)     ;
(PID.TID 0000.0001) PTRACERS_diffK4 = /* Biharmonic Diffusivity */
(PID.TID 0000.0001)                 0.000000000000000E+00
(PID.TID 0000.0001)     ;
(PID.TID 0000.0001) PTRACERS_diffKrNr = /* Vertical Diffusivity */
(PID.TID 0000.0001)    35 @  1.000000000000000E-05              /* K =  1: 35 */
(PID.TID 0000.0001)     ;
(PID.TID 0000.0001) PTRACERS_useGMRedi = /* apply GM-Redi */
(PID.TID 0000.0001)                   F
(PID.TID 0000.0001)     ;
(PID.TID 0000.0001) PTRACERS_useDWNSLP = /* apply DOWN-SLOPE Flow */
(PID.TID 0000.0001)                   F
(PID.TID 0000.0001)     ;
(PID.TID 0000.0001) PTRACERS_useKPP = /* apply KPP scheme */
(PID.TID 0000.0001)                   T
(PID.TID 0000.0001)     ;
(PID.TID 0000.0001) PTRACERS_ref = /* Reference vertical profile */
(PID.TID 0000.0001)    35 @  0.000000000000000E+00              /* K =  1: 35 */
(PID.TID 0000.0001)     ;
(PID.TID 0000.0001) PTRACERS_EvPrRn =/* tracer conc. in Evap. & Rain */
(PID.TID 0000.0001)                 1.234567000000000E+05
(PID.TID 0000.0001)     ;
(PID.TID 0000.0001)  -----------------------------------
(PID.TID 0000.0001)  tracer number :   32
(PID.TID 0000.0001) PTRACERS_names = /* Tracer short name */
(PID.TID 0000.0001)               'Chl5'
(PID.TID 0000.0001)     ;
(PID.TID 0000.0001) PTRACERS_long_names = /* Tracer long name */
(PID.TID 0000.0001)               ''
(PID.TID 0000.0001)     ;
(PID.TID 0000.0001) PTRACERS_ioLabel = /* tracer IO Label */
(PID.TID 0000.0001)               '32'
(PID.TID 0000.0001)     ;
(PID.TID 0000.0001) PTRACERS_advScheme = /* Advection Scheme */
(PID.TID 0000.0001)                      33
(PID.TID 0000.0001)     ;
(PID.TID 0000.0001) PTRACERS_SOM_Advection = /* tracer uses SOM advection scheme */
(PID.TID 0000.0001)                   F
(PID.TID 0000.0001)     ;
(PID.TID 0000.0001) PTRACERS_ImplVertAdv = /* implicit vert. advection flag */
(PID.TID 0000.0001)                   F
(PID.TID 0000.0001)     ;
(PID.TID 0000.0001) PTRACERS_diffKh = /* Laplacian Diffusivity */
(PID.TID 0000.0001)                 0.000000000000000E+00
(PID.TID 0000.0001)     ;
(PID.TID 0000.0001) PTRACERS_diffK4 = /* Biharmonic Diffusivity */
(PID.TID 0000.0001)                 0.000000000000000E+00
(PID.TID 0000.0001)     ;
(PID.TID 0000.0001) PTRACERS_diffKrNr = /* Vertical Diffusivity */
(PID.TID 0000.0001)    35 @  1.000000000000000E-05              /* K =  1: 35 */
(PID.TID 0000.0001)     ;
(PID.TID 0000.0001) PTRACERS_useGMRedi = /* apply GM-Redi */
(PID.TID 0000.0001)                   F
(PID.TID 0000.0001)     ;
(PID.TID 0000.0001) PTRACERS_useDWNSLP = /* apply DOWN-SLOPE Flow */
(PID.TID 0000.0001)                   F
(PID.TID 0000.0001)     ;
(PID.TID 0000.0001) PTRACERS_useKPP = /* apply KPP scheme */
(PID.TID 0000.0001)                   T
(PID.TID 0000.0001)     ;
(PID.TID 0000.0001) PTRACERS_ref = /* Reference vertical profile */
(PID.TID 0000.0001)    35 @  0.000000000000000E+00              /* K =  1: 35 */
(PID.TID 0000.0001)     ;
(PID.TID 0000.0001) PTRACERS_EvPrRn =/* tracer conc. in Evap. & Rain */
(PID.TID 0000.0001)                 1.234567000000000E+05
(PID.TID 0000.0001)     ;
(PID.TID 0000.0001)  -----------------------------------
(PID.TID 0000.0001)  tracer number :   33
(PID.TID 0000.0001) PTRACERS_names = /* Tracer short name */
(PID.TID 0000.0001)               'Chl6'
(PID.TID 0000.0001)     ;
(PID.TID 0000.0001) PTRACERS_long_names = /* Tracer long name */
(PID.TID 0000.0001)               ''
(PID.TID 0000.0001)     ;
(PID.TID 0000.0001) PTRACERS_ioLabel = /* tracer IO Label */
(PID.TID 0000.0001)               '33'
(PID.TID 0000.0001)     ;
(PID.TID 0000.0001) PTRACERS_advScheme = /* Advection Scheme */
(PID.TID 0000.0001)                      33
(PID.TID 0000.0001)     ;
(PID.TID 0000.0001) PTRACERS_SOM_Advection = /* tracer uses SOM advection scheme */
(PID.TID 0000.0001)                   F
(PID.TID 0000.0001)     ;
(PID.TID 0000.0001) PTRACERS_ImplVertAdv = /* implicit vert. advection flag */
(PID.TID 0000.0001)                   F
(PID.TID 0000.0001)     ;
(PID.TID 0000.0001) PTRACERS_diffKh = /* Laplacian Diffusivity */
(PID.TID 0000.0001)                 0.000000000000000E+00
(PID.TID 0000.0001)     ;
(PID.TID 0000.0001) PTRACERS_diffK4 = /* Biharmonic Diffusivity */
(PID.TID 0000.0001)                 0.000000000000000E+00
(PID.TID 0000.0001)     ;
(PID.TID 0000.0001) PTRACERS_diffKrNr = /* Vertical Diffusivity */
(PID.TID 0000.0001)    35 @  1.000000000000000E-05              /* K =  1: 35 */
(PID.TID 0000.0001)     ;
(PID.TID 0000.0001) PTRACERS_useGMRedi = /* apply GM-Redi */
(PID.TID 0000.0001)                   F
(PID.TID 0000.0001)     ;
(PID.TID 0000.0001) PTRACERS_useDWNSLP = /* apply DOWN-SLOPE Flow */
(PID.TID 0000.0001)                   F
(PID.TID 0000.0001)     ;
(PID.TID 0000.0001) PTRACERS_useKPP = /* apply KPP scheme */
(PID.TID 0000.0001)                   T
(PID.TID 0000.0001)     ;
(PID.TID 0000.0001) PTRACERS_ref = /* Reference vertical profile */
(PID.TID 0000.0001)    35 @  0.000000000000000E+00              /* K =  1: 35 */
(PID.TID 0000.0001)     ;
(PID.TID 0000.0001) PTRACERS_EvPrRn =/* tracer conc. in Evap. & Rain */
(PID.TID 0000.0001)                 1.234567000000000E+05
(PID.TID 0000.0001)     ;
(PID.TID 0000.0001)  -----------------------------------
(PID.TID 0000.0001) GCHEM_CHECK: #define ALLOW_GCHEM
(PID.TID 0000.0001) DARWIN_CHECK: #define ALLOW_DARWIN
(PID.TID 0000.0001) DARWIN_CHECK: iPtr darwin   PTRACERS_names
(PID.TID 0000.0001) DARWIN_CHECK:    1 DIC      DIC
(PID.TID 0000.0001) DARWIN_CHECK:    2 NH4      NH4
(PID.TID 0000.0001) DARWIN_CHECK:    3 NO2      NO2
(PID.TID 0000.0001) DARWIN_CHECK:    4 NO3      NO3
(PID.TID 0000.0001) DARWIN_CHECK:    5 PO4      PO4
(PID.TID 0000.0001) DARWIN_CHECK:    6 SiO2     SiO2
(PID.TID 0000.0001) DARWIN_CHECK:    7 FeT      FeT
(PID.TID 0000.0001) DARWIN_CHECK:    8 DOC      DOC
(PID.TID 0000.0001) DARWIN_CHECK:    9 DON      DON
(PID.TID 0000.0001) DARWIN_CHECK:   10 DOP      DOP
(PID.TID 0000.0001) DARWIN_CHECK:   11 DOFe     DOFe
(PID.TID 0000.0001) DARWIN_CHECK:   12 POC      POC
(PID.TID 0000.0001) DARWIN_CHECK:   13 PON      PON
(PID.TID 0000.0001) DARWIN_CHECK:   14 POP      POP
(PID.TID 0000.0001) DARWIN_CHECK:   15 POSi     POSi
(PID.TID 0000.0001) DARWIN_CHECK:   16 POFe     POFe
(PID.TID 0000.0001) DARWIN_CHECK:   17 PIC      PIC
(PID.TID 0000.0001) DARWIN_CHECK:   18 ALK      ALK
(PID.TID 0000.0001) DARWIN_CHECK:   19 O2       O2
(PID.TID 0000.0001) DARWIN_CHECK:   20 c    (1) c1
(PID.TID 0000.0001) DARWIN_CHECK:   21 c    (2) c2
(PID.TID 0000.0001) DARWIN_CHECK:   22 c    (3) c3
(PID.TID 0000.0001) DARWIN_CHECK:   23 c    (4) c4
(PID.TID 0000.0001) DARWIN_CHECK:   24 c    (5) c5
(PID.TID 0000.0001) DARWIN_CHECK:   25 c    (6) c6
(PID.TID 0000.0001) DARWIN_CHECK:   26 c    (7) c7
(PID.TID 0000.0001) DARWIN_CHECK:   27 c    (8) c8
(PID.TID 0000.0001) DARWIN_CHECK:   28 Chl  (1) Chl1
(PID.TID 0000.0001) DARWIN_CHECK:   29 Chl  (2) Chl2
(PID.TID 0000.0001) DARWIN_CHECK:   30 Chl  (3) Chl3
(PID.TID 0000.0001) DARWIN_CHECK:   31 Chl  (4) Chl4
(PID.TID 0000.0001) DARWIN_CHECK:   32 Chl  (5) Chl5
(PID.TID 0000.0001) DARWIN_CHECK:   33 Chl  (6) Chl6
(PID.TID 0000.0001) GAD_CHECK: #define ALLOW_GENERIC_ADVDIFF
(PID.TID 0000.0001) // =======================================================
(PID.TID 0000.0001) // Check Model config. (CONFIG_CHECK):
(PID.TID 0000.0001) // CONFIG_CHECK : Normal End
(PID.TID 0000.0001) // =======================================================
(PID.TID 0000.0001) 
(PID.TID 0000.0001)  MDS_READ_FIELD: opening global file: ../input/input/loc1_temp_janprof.bin
(PID.TID 0000.0001)  MDS_READ_FIELD: opening global file: ../input/input/salt_uniform.bin
(PID.TID 0000.0001) Start initial hydrostatic pressure computation
(PID.TID 0000.0001) Pressure is predetermined for buoyancyRelation OCEANIC
(PID.TID 0000.0001) 
(PID.TID 0000.0001)  MDS_READ_FIELD: opening global file: ../input/input/loc1_taux_monsurf.bin
(PID.TID 0000.0001)  MDS_READ_FIELD: opening global file: ../input/input/loc1_tauy_monsurf.bin
(PID.TID 0000.0001)  MDS_READ_FIELD: opening global file: ../input/input/loc1_temp_monsurf.bin
(PID.TID 0000.0001)  write diagnostics summary to file ioUnit:      6
Iter.Nb:         0 ; Time(s):  0.0000000000000E+00
------------------------------------------------------------------------
2D/3D diagnostics: Number of lists:     1
------------------------------------------------------------------------
listId=    1 ; file name: darwin
 nFlds, nActive,       freq     &     phase        , nLev               
   34  |   34  |      3600.000000         0.000000 |  35
 levels:   1   2   3   4   5   6   7   8   9  10  11  12  13  14  15  16  17  18  19  20  21  22  23  24  25
 levels:  26  27  28  29  30  31  32  33  34  35
 diag# | name   |   ipt  |  iMate | kLev|   count |   mate.C|           
   156 |TRAC01  |      1 |      0 |  35 |       0 |
   169 |TRAC02  |     36 |      0 |  35 |       0 |
   182 |TRAC03  |     71 |      0 |  35 |       0 |
   195 |TRAC04  |    106 |      0 |  35 |       0 |
   208 |TRAC05  |    141 |      0 |  35 |       0 |
   221 |TRAC06  |    176 |      0 |  35 |       0 |
   234 |TRAC07  |    211 |      0 |  35 |       0 |
   247 |TRAC08  |    246 |      0 |  35 |       0 |
   260 |TRAC09  |    281 |      0 |  35 |       0 |
   273 |TRAC10  |    316 |      0 |  35 |       0 |
   286 |TRAC11  |    351 |      0 |  35 |       0 |
   299 |TRAC12  |    386 |      0 |  35 |       0 |
   312 |TRAC13  |    421 |      0 |  35 |       0 |
   325 |TRAC14  |    456 |      0 |  35 |       0 |
   338 |TRAC15  |    491 |      0 |  35 |       0 |
   351 |TRAC16  |    526 |      0 |  35 |       0 |
   364 |TRAC17  |    561 |      0 |  35 |       0 |
   377 |TRAC18  |    596 |      0 |  35 |       0 |
   390 |TRAC19  |    631 |      0 |  35 |       0 |
   403 |TRAC20  |    666 |      0 |  35 |       0 |
   416 |TRAC21  |    701 |      0 |  35 |       0 |
   429 |TRAC22  |    736 |      0 |  35 |       0 |
   442 |TRAC23  |    771 |      0 |  35 |       0 |
   455 |TRAC24  |    806 |      0 |  35 |       0 |
   468 |TRAC25  |    841 |      0 |  35 |       0 |
   481 |TRAC26  |    876 |      0 |  35 |       0 |
   494 |TRAC27  |    911 |      0 |  35 |       0 |
   507 |TRAC28  |    946 |      0 |  35 |       0 |
   520 |TRAC29  |    981 |      0 |  35 |       0 |
   533 |TRAC30  |   1016 |      0 |  35 |       0 |
   589 |PARF    |   1051 |      0 |  35 |       0 |
   586 |atten   |   1086 |      0 |  35 |       0 |
   588 |surfPAR |   1121 |      0 |  35 |       0 |
   587 |exfPAR  |   1156 |      0 |  35 |       0 |
------------------------------------------------------------------------
Global & Regional Statistics diagnostics: Number of lists:     0
------------------------------------------------------------------------
(PID.TID 0000.0001)  MDS_READ_FIELD: opening global file: ../input/input/loc1_glodap_tco2_ann-3d.bin
(PID.TID 0000.0001)  MDS_READ_FIELD: opening global file: ../input/input/loc1_nh4_y2000.data
(PID.TID 0000.0001)  MDS_READ_FIELD: opening global file: ../input/input/loc1_no2_y2000.data
(PID.TID 0000.0001)  MDS_READ_FIELD: opening global file: ../input/input/loc1_lev01_nitrate_ann-3d.bin
(PID.TID 0000.0001)  MDS_READ_FIELD: opening global file: ../input/input/loc1_lev01_phosphate_ann-3d.bin
(PID.TID 0000.0001)  MDS_READ_FIELD: opening global file: ../input/input/loc1_lev01_silicate_ann-3d.bin
(PID.TID 0000.0001)  MDS_READ_FIELD: opening global file: ../input/input/loc1_fet_y2000.data
(PID.TID 0000.0001)  MDS_READ_FIELD: opening global file: ../input/input/loc1_doc_y2000.data
(PID.TID 0000.0001)  MDS_READ_FIELD: opening global file: ../input/input/loc1_don_y2000.data
(PID.TID 0000.0001)  MDS_READ_FIELD: opening global file: ../input/input/loc1_dop_y2000.data
(PID.TID 0000.0001)  MDS_READ_FIELD: opening global file: ../input/input/loc1_dofe_y2000.data
(PID.TID 0000.0001)  MDS_READ_FIELD: opening global file: ../input/input/loc1_poc_y2000.data
(PID.TID 0000.0001)  MDS_READ_FIELD: opening global file: ../input/input/loc1_pon_y2000.data
(PID.TID 0000.0001)  MDS_READ_FIELD: opening global file: ../input/input/loc1_pop_y2000.data
(PID.TID 0000.0001)  MDS_READ_FIELD: opening global file: ../input/input/loc1_posi_y2000.data
(PID.TID 0000.0001)  MDS_READ_FIELD: opening global file: ../input/input/loc1_pofe_y2000.data
(PID.TID 0000.0001)  MDS_READ_FIELD: opening global file: ../input/input/loc1_pic_y2000.data
(PID.TID 0000.0001)  MDS_READ_FIELD: opening global file: ../input/input/loc1_glodap_alk_ann-3d.bin
(PID.TID 0000.0001)  MDS_READ_FIELD: opening global file: ../input/input/loc1_lev01_oxygen_micromolar_ann-3d.bin
(PID.TID 0000.0001)  MDS_READ_FIELD: opening global file: ../input/input/loc1_phy_6species_y2000.data
(PID.TID 0000.0001)  MDS_READ_FIELD: opening global file: ../input/input/loc1_phy_6species_y2000.data
(PID.TID 0000.0001)  MDS_READ_FIELD: opening global file: ../input/input/loc1_phy_6species_y2000.data
(PID.TID 0000.0001)  MDS_READ_FIELD: opening global file: ../input/input/loc1_phy_6species_y2000.data
(PID.TID 0000.0001)  MDS_READ_FIELD: opening global file: ../input/input/loc1_phy_6species_y2000.data
(PID.TID 0000.0001)  MDS_READ_FIELD: opening global file: ../input/input/loc1_phy_6species_y2000.data
(PID.TID 0000.0001)  MDS_READ_FIELD: opening global file: ../input/input/loc1_zoop_y2000.data
(PID.TID 0000.0001)  MDS_READ_FIELD: opening global file: ../input/input/loc1_zoop_y2000.data
(PID.TID 0000.0001)  MDS_READ_FIELD: opening global file: ../input/input/loc1_ecco_oasim_total_below_oneband_einm2d.bin
(PID.TID 0000.0001)  MDS_READ_FIELD: opening global file: ../input/input/loc1_ecco_oasim_total_below_oneband_einm2d.bin
(PID.TID 0000.0001)  MDS_READ_FIELD: opening global file: ../input/input/loc1_mahowald2009_solubile_current_smooth_oce_mth-2d.bin
(PID.TID 0000.0001)  MDS_READ_FIELD: opening global file: ../input/input/loc1_mahowald2009_solubile_current_smooth_oce_mth-2d.bin
(PID.TID 0000.0001)  MDS_READ_FIELD: opening global file: ../input/input/loc1_tren_speed_mth-2d.bin
(PID.TID 0000.0001)  MDS_READ_FIELD: opening global file: ../input/input/loc1_tren_speed_mth-2d.bin
 QQ: pCO2 approximation method
 QQ first guess pH   8.1065408467326581        8.2959995269775391        35.000000000000000        2.0737094726562502        1.2293500900268555E-003   3.4295001029968262E-003   2.2763483886718752     
(PID.TID 0000.0001) // =======================================================
(PID.TID 0000.0001) // Model current state
(PID.TID 0000.0001) // =======================================================
(PID.TID 0000.0001) 
(PID.TID 0000.0001) // =======================================================
(PID.TID 0000.0001) // Begin MONITOR dynamic field statistics
(PID.TID 0000.0001) // =======================================================
(PID.TID 0000.0001) %MON time_tsnumber                =                     0
(PID.TID 0000.0001) %MON time_secondsf                =   0.0000000000000000E+00
(PID.TID 0000.0001) %MON dynstat_eta_max              =   0.0000000000000000E+00
(PID.TID 0000.0001) %MON dynstat_eta_min              =   0.0000000000000000E+00
(PID.TID 0000.0001) %MON dynstat_eta_mean             =   0.0000000000000000E+00
(PID.TID 0000.0001) %MON dynstat_eta_sd               =   0.0000000000000000E+00
(PID.TID 0000.0001) %MON dynstat_eta_del2             =   0.0000000000000000E+00
(PID.TID 0000.0001) %MON dynstat_uvel_max             =   0.0000000000000000E+00
(PID.TID 0000.0001) %MON dynstat_uvel_min             =   0.0000000000000000E+00
(PID.TID 0000.0001) %MON dynstat_uvel_mean            =   0.0000000000000000E+00
(PID.TID 0000.0001) %MON dynstat_uvel_sd              =   0.0000000000000000E+00
(PID.TID 0000.0001) %MON dynstat_uvel_del2            =   0.0000000000000000E+00
(PID.TID 0000.0001) %MON dynstat_vvel_max             =   0.0000000000000000E+00
(PID.TID 0000.0001) %MON dynstat_vvel_min             =   0.0000000000000000E+00
(PID.TID 0000.0001) %MON dynstat_vvel_mean            =   0.0000000000000000E+00
(PID.TID 0000.0001) %MON dynstat_vvel_sd              =   0.0000000000000000E+00
(PID.TID 0000.0001) %MON dynstat_vvel_del2            =   0.0000000000000000E+00
(PID.TID 0000.0001) %MON dynstat_wvel_max             =   0.0000000000000000E+00
(PID.TID 0000.0001) %MON dynstat_wvel_min             =   0.0000000000000000E+00
(PID.TID 0000.0001) %MON dynstat_wvel_mean            =   0.0000000000000000E+00
(PID.TID 0000.0001) %MON dynstat_wvel_sd              =   0.0000000000000000E+00
(PID.TID 0000.0001) %MON dynstat_wvel_del2            =   0.0000000000000000E+00
(PID.TID 0000.0001) %MON dynstat_theta_max            =   8.2977504730224609E+00
(PID.TID 0000.0001) %MON dynstat_theta_min            =   1.5167000293731689E+00
(PID.TID 0000.0001) %MON dynstat_theta_mean           =   2.8239317499687400E+00
(PID.TID 0000.0001) %MON dynstat_theta_sd             =   1.3644468593155439E+00
(PID.TID 0000.0001) %MON dynstat_theta_del2           =   0.0000000000000000E+00
(PID.TID 0000.0001) %MON dynstat_salt_max             =   3.5000000000000000E+01
(PID.TID 0000.0001) %MON dynstat_salt_min             =   3.5000000000000000E+01
(PID.TID 0000.0001) %MON dynstat_salt_mean            =   3.4999999999999986E+01
(PID.TID 0000.0001) %MON dynstat_salt_sd              =   1.4210854715202004E-14
(PID.TID 0000.0001) %MON dynstat_salt_del2            =   0.0000000000000000E+00
(PID.TID 0000.0001) %MON dynstat_sst_max              =   8.2959995269775391E+00
(PID.TID 0000.0001) %MON dynstat_sst_min              =   8.2959995269775391E+00
(PID.TID 0000.0001) %MON dynstat_sst_mean             =   8.2959995269775391E+00
(PID.TID 0000.0001) %MON dynstat_sst_sd               =   0.0000000000000000E+00
(PID.TID 0000.0001) %MON dynstat_sst_del2             =   0.0000000000000000E+00
(PID.TID 0000.0001) %MON dynstat_sss_max              =   3.5000000000000000E+01
(PID.TID 0000.0001) %MON dynstat_sss_min              =   3.5000000000000000E+01
(PID.TID 0000.0001) %MON dynstat_sss_mean             =   3.5000000000000000E+01
(PID.TID 0000.0001) %MON dynstat_sss_sd               =   0.0000000000000000E+00
(PID.TID 0000.0001) %MON dynstat_sss_del2             =   0.0000000000000000E+00
(PID.TID 0000.0001) %MON forcing_qnet_max             =   0.0000000000000000E+00
(PID.TID 0000.0001) %MON forcing_qnet_min             =   0.0000000000000000E+00
(PID.TID 0000.0001) %MON forcing_qnet_mean            =   0.0000000000000000E+00
(PID.TID 0000.0001) %MON forcing_qnet_sd              =   0.0000000000000000E+00
(PID.TID 0000.0001) %MON forcing_qnet_del2            =   0.0000000000000000E+00
(PID.TID 0000.0001) %MON forcing_qsw_max              =   0.0000000000000000E+00
(PID.TID 0000.0001) %MON forcing_qsw_min              =   0.0000000000000000E+00
(PID.TID 0000.0001) %MON forcing_qsw_mean             =   0.0000000000000000E+00
(PID.TID 0000.0001) %MON forcing_qsw_sd               =   0.0000000000000000E+00
(PID.TID 0000.0001) %MON forcing_qsw_del2             =   0.0000000000000000E+00
(PID.TID 0000.0001) %MON forcing_empmr_max            =   0.0000000000000000E+00
(PID.TID 0000.0001) %MON forcing_empmr_min            =   0.0000000000000000E+00
(PID.TID 0000.0001) %MON forcing_empmr_mean           =   0.0000000000000000E+00
(PID.TID 0000.0001) %MON forcing_empmr_sd             =   0.0000000000000000E+00
(PID.TID 0000.0001) %MON forcing_empmr_del2           =   0.0000000000000000E+00
(PID.TID 0000.0001) %MON forcing_fu_max               =   2.3210000991821289E+00
(PID.TID 0000.0001) %MON forcing_fu_min               =   2.3210000991821289E+00
(PID.TID 0000.0001) %MON forcing_fu_mean              =   2.3210000991821289E+00
(PID.TID 0000.0001) %MON forcing_fu_sd                =   0.0000000000000000E+00
(PID.TID 0000.0001) %MON forcing_fu_del2              =   0.0000000000000000E+00
(PID.TID 0000.0001) %MON forcing_fv_max               =  -4.5800000429153442E-01
(PID.TID 0000.0001) %MON forcing_fv_min               =  -4.5800000429153442E-01
(PID.TID 0000.0001) %MON forcing_fv_mean              =  -4.5800000429153448E-01
(PID.TID 0000.0001) %MON forcing_fv_sd                =   5.5511151231257827E-17
(PID.TID 0000.0001) %MON forcing_fv_del2              =   0.0000000000000000E+00
(PID.TID 0000.0001) %MON advcfl_uvel_max              =   0.0000000000000000E+00
(PID.TID 0000.0001) %MON advcfl_vvel_max              =   0.0000000000000000E+00
(PID.TID 0000.0001) %MON advcfl_wvel_max              =   0.0000000000000000E+00
(PID.TID 0000.0001) %MON advcfl_W_hf_max              =   0.0000000000000000E+00
(PID.TID 0000.0001) %MON pe_b_mean                    =   0.0000000000000000E+00
(PID.TID 0000.0001) %MON ke_max                       =   0.0000000000000000E+00
(PID.TID 0000.0001) %MON ke_mean                      =   0.0000000000000000E+00
(PID.TID 0000.0001) %MON ke_vol                       =   3.0811817830111180E+13
(PID.TID 0000.0001) %MON vort_r_min                   =   0.0000000000000000E+00
(PID.TID 0000.0001) %MON vort_r_max                   =   0.0000000000000000E+00
(PID.TID 0000.0001) %MON vort_a_mean                  =  -1.0312619976227577E-04
(PID.TID 0000.0001) %MON vort_a_sd                    =   2.8760747774580336E-12
(PID.TID 0000.0001) %MON vort_p_mean                  =  -1.0312619976227577E-04
(PID.TID 0000.0001) %MON vort_p_sd                    =   2.8760747774580336E-12
(PID.TID 0000.0001) %MON surfExpan_theta_mean         =   0.0000000000000000E+00
(PID.TID 0000.0001) %MON surfExpan_salt_mean          =   0.0000000000000000E+00
(PID.TID 0000.0001) // =======================================================
(PID.TID 0000.0001) // End MONITOR dynamic field statistics
(PID.TID 0000.0001) // =======================================================
(PID.TID 0000.0001) // =======================================================
(PID.TID 0000.0001) // Begin MONITOR ptracer field statistics
(PID.TID 0000.0001) // =======================================================
(PID.TID 0000.0001) %MON trcstat_ptracer01_max        =   2.2359128417968750E+03
(PID.TID 0000.0001) %MON trcstat_ptracer01_min        =   2.0708164062500000E+03
(PID.TID 0000.0001) %MON trcstat_ptracer01_mean       =   2.2089819639803509E+03
(PID.TID 0000.0001) %MON trcstat_ptracer01_sd         =   4.0007771244450936E+01
(PID.TID 0000.0001) %MON trcstat_ptracer01_del2       =   0.0000000000000000E+00
(PID.TID 0000.0001) %MON trcstat_ptracer02_max        =   3.5487464070320129E-01
(PID.TID 0000.0001) %MON trcstat_ptracer02_min        =   3.2879972422961146E-05
(PID.TID 0000.0001) %MON trcstat_ptracer02_mean       =   6.1590829592050545E-03
(PID.TID 0000.0001) %MON trcstat_ptracer02_sd         =   4.2030743534085271E-02
(PID.TID 0000.0001) %MON trcstat_ptracer02_del2       =   0.0000000000000000E+00
(PID.TID 0000.0001) %MON trcstat_ptracer03_max        =   2.5541624426841736E-01
(PID.TID 0000.0001) %MON trcstat_ptracer03_min        =   6.6233676625415683E-04
(PID.TID 0000.0001) %MON trcstat_ptracer03_mean       =   1.7433212526097287E-02
(PID.TID 0000.0001) %MON trcstat_ptracer03_sd         =   3.7085179302057542E-02
(PID.TID 0000.0001) %MON trcstat_ptracer03_del2       =   0.0000000000000000E+00
(PID.TID 0000.0001) %MON trcstat_ptracer04_max        =   3.4239032745361328E+01
(PID.TID 0000.0001) %MON trcstat_ptracer04_min        =   1.4353099822998047E+01
(PID.TID 0000.0001) %MON trcstat_ptracer04_mean       =   2.9892435908829189E+01
(PID.TID 0000.0001) %MON trcstat_ptracer04_sd         =   3.8826433048366398E+00
(PID.TID 0000.0001) %MON trcstat_ptracer04_del2       =   0.0000000000000000E+00
(PID.TID 0000.0001) %MON trcstat_ptracer05_max        =   2.3348040580749512E+00
(PID.TID 0000.0001) %MON trcstat_ptracer05_min        =   1.1924467086791992E+00
(PID.TID 0000.0001) %MON trcstat_ptracer05_mean       =   2.0209448864531616E+00
(PID.TID 0000.0001) %MON trcstat_ptracer05_sd         =   2.4243584867596490E-01
(PID.TID 0000.0001) %MON trcstat_ptracer05_del2       =   0.0000000000000000E+00
(PID.TID 0000.0001) %MON trcstat_ptracer06_max        =   9.3254089355468750E+01
(PID.TID 0000.0001) %MON trcstat_ptracer06_min        =   3.3668999671936035E+00
(PID.TID 0000.0001) %MON trcstat_ptracer06_mean       =   6.1182524106021596E+01
(PID.TID 0000.0001) %MON trcstat_ptracer06_sd         =   2.6240968294013943E+01
(PID.TID 0000.0001) %MON trcstat_ptracer06_del2       =   0.0000000000000000E+00
(PID.TID 0000.0001) %MON trcstat_ptracer07_max        =   9.2528306413441896E-04
(PID.TID 0000.0001) %MON trcstat_ptracer07_min        =   2.5511176318104845E-06
(PID.TID 0000.0001) %MON trcstat_ptracer07_mean       =   6.3719613414789616E-04
(PID.TID 0000.0001) %MON trcstat_ptracer07_sd         =   1.9801490542020760E-04
(PID.TID 0000.0001) %MON trcstat_ptracer07_del2       =   0.0000000000000000E+00
(PID.TID 0000.0001) %MON trcstat_ptracer08_max        =   1.2577779769897461E+01
(PID.TID 0000.0001) %MON trcstat_ptracer08_min        =   6.8111409845528215E-09
(PID.TID 0000.0001) %MON trcstat_ptracer08_mean       =   5.3464270055665741E-01
(PID.TID 0000.0001) %MON trcstat_ptracer08_sd         =   1.9414767720009294E+00
(PID.TID 0000.0001) %MON trcstat_ptracer08_del2       =   0.0000000000000000E+00
(PID.TID 0000.0001) %MON trcstat_ptracer09_max        =   1.6770923137664795E+00
(PID.TID 0000.0001) %MON trcstat_ptracer09_min        =   9.0815516218256676E-10
(PID.TID 0000.0001) %MON trcstat_ptracer09_mean       =   7.1289554911815808E-02
(PID.TID 0000.0001) %MON trcstat_ptracer09_sd         =   2.5887518164364470E-01
(PID.TID 0000.0001) %MON trcstat_ptracer09_del2       =   0.0000000000000000E+00
(PID.TID 0000.0001) %MON trcstat_ptracer10_max        =   1.0481483489274979E-01
(PID.TID 0000.0001) %MON trcstat_ptracer10_min        =   5.6759506816828065E-11
(PID.TID 0000.0001) %MON trcstat_ptracer10_mean       =   4.4553559108483822E-03
(PID.TID 0000.0001) %MON trcstat_ptracer10_sd         =   1.6178973425221958E-02
(PID.TID 0000.0001) %MON trcstat_ptracer10_del2       =   0.0000000000000000E+00
(PID.TID 0000.0001) %MON trcstat_ptracer11_max        =   1.0482160723768175E-04
(PID.TID 0000.0001) %MON trcstat_ptracer11_min        =   5.6759887859681585E-14
(PID.TID 0000.0001) %MON trcstat_ptracer11_mean       =   4.4558321221052820E-06
(PID.TID 0000.0001) %MON trcstat_ptracer11_sd         =   1.6180403193302615E-05
(PID.TID 0000.0001) %MON trcstat_ptracer11_del2       =   0.0000000000000000E+00
(PID.TID 0000.0001) %MON trcstat_ptracer12_max        =   1.2606523036956787E+00
(PID.TID 0000.0001) %MON trcstat_ptracer12_min        =   4.6332214027643204E-02
(PID.TID 0000.0001) %MON trcstat_ptracer12_mean       =   4.6889322904472863E-01
(PID.TID 0000.0001) %MON trcstat_ptracer12_sd         =   4.4427307704611257E-01
(PID.TID 0000.0001) %MON trcstat_ptracer12_del2       =   0.0000000000000000E+00
(PID.TID 0000.0001) %MON trcstat_ptracer13_max        =   1.6808715462684631E-01
(PID.TID 0000.0001) %MON trcstat_ptracer13_min        =   6.1796545051038265E-03
(PID.TID 0000.0001) %MON trcstat_ptracer13_mean       =   6.2521437923816980E-02
(PID.TID 0000.0001) %MON trcstat_ptracer13_sd         =   5.9235406113365106E-02
(PID.TID 0000.0001) %MON trcstat_ptracer13_del2       =   0.0000000000000000E+00
(PID.TID 0000.0001) %MON trcstat_ptracer14_max        =   1.0505435988306999E-02
(PID.TID 0000.0001) %MON trcstat_ptracer14_min        =   3.8610177580267191E-04
(PID.TID 0000.0001) %MON trcstat_ptracer14_mean       =   3.9074435378444799E-03
(PID.TID 0000.0001) %MON trcstat_ptracer14_sd         =   3.7022755377606525E-03
(PID.TID 0000.0001) %MON trcstat_ptracer14_del2       =   0.0000000000000000E+00
(PID.TID 0000.0001) %MON trcstat_ptracer15_max        =   5.9371197223663330E-01
(PID.TID 0000.0001) %MON trcstat_ptracer15_min        =   7.1991190314292908E-02
(PID.TID 0000.0001) %MON trcstat_ptracer15_mean       =   3.0112536750382107E-01
(PID.TID 0000.0001) %MON trcstat_ptracer15_sd         =   1.6096191693698483E-01
(PID.TID 0000.0001) %MON trcstat_ptracer15_del2       =   0.0000000000000000E+00
(PID.TID 0000.0001) %MON trcstat_ptracer16_max        =   1.0505459613341372E-05
(PID.TID 0000.0001) %MON trcstat_ptracer16_min        =   3.8635710097878473E-07
(PID.TID 0000.0001) %MON trcstat_ptracer16_mean       =   3.9077393276252102E-06
(PID.TID 0000.0001) %MON trcstat_ptracer16_sd         =   3.7021481588347600E-06
(PID.TID 0000.0001) %MON trcstat_ptracer16_del2       =   0.0000000000000000E+00
(PID.TID 0000.0001) %MON trcstat_ptracer17_max        =   8.2691237330436707E-02
(PID.TID 0000.0001) %MON trcstat_ptracer17_min        =   3.9069196209311485E-03
(PID.TID 0000.0001) %MON trcstat_ptracer17_mean       =   5.5125630900359698E-02
(PID.TID 0000.0001) %MON trcstat_ptracer17_sd         =   1.7494486035040946E-02
(PID.TID 0000.0001) %MON trcstat_ptracer17_del2       =   0.0000000000000000E+00
(PID.TID 0000.0001) %MON trcstat_ptracer18_max        =   2.3510737304687500E+03
(PID.TID 0000.0001) %MON trcstat_ptracer18_min        =   2.2762221679687500E+03
(PID.TID 0000.0001) %MON trcstat_ptracer18_mean       =   2.3233194693591286E+03
(PID.TID 0000.0001) %MON trcstat_ptracer18_sd         =   2.5001036975940877E+01
(PID.TID 0000.0001) %MON trcstat_ptracer18_del2       =   0.0000000000000000E+00
(PID.TID 0000.0001) %MON trcstat_ptracer19_max        =   2.9134402465820312E+02
(PID.TID 0000.0001) %MON trcstat_ptracer19_min        =   1.9290156555175781E+02
(PID.TID 0000.0001) %MON trcstat_ptracer19_mean       =   2.2202063136721543E+02
(PID.TID 0000.0001) %MON trcstat_ptracer19_sd         =   2.3973161149529805E+01
(PID.TID 0000.0001) %MON trcstat_ptracer19_del2       =   0.0000000000000000E+00
(PID.TID 0000.0001) %MON trcstat_ptracer20_max        =   2.9525510966777802E-01
(PID.TID 0000.0001) %MON trcstat_ptracer20_min        =   4.0116943631380046E-14
(PID.TID 0000.0001) %MON trcstat_ptracer20_mean       =   4.5135615504453639E-03
(PID.TID 0000.0001) %MON trcstat_ptracer20_sd         =   2.5607855483843492E-02
(PID.TID 0000.0001) %MON trcstat_ptracer20_del2       =   0.0000000000000000E+00
(PID.TID 0000.0001) %MON trcstat_ptracer21_max        =   2.9525510966777802E-01
(PID.TID 0000.0001) %MON trcstat_ptracer21_min        =   4.0116943631380046E-14
(PID.TID 0000.0001) %MON trcstat_ptracer21_mean       =   4.5135615504453639E-03
(PID.TID 0000.0001) %MON trcstat_ptracer21_sd         =   2.5607855483843492E-02
(PID.TID 0000.0001) %MON trcstat_ptracer21_del2       =   0.0000000000000000E+00
(PID.TID 0000.0001) %MON trcstat_ptracer22_max        =   2.9525510966777802E-01
(PID.TID 0000.0001) %MON trcstat_ptracer22_min        =   4.0116943631380046E-14
(PID.TID 0000.0001) %MON trcstat_ptracer22_mean       =   4.5135615504453639E-03
(PID.TID 0000.0001) %MON trcstat_ptracer22_sd         =   2.5607855483843492E-02
(PID.TID 0000.0001) %MON trcstat_ptracer22_del2       =   0.0000000000000000E+00
(PID.TID 0000.0001) %MON trcstat_ptracer23_max        =   2.9525510966777802E-01
(PID.TID 0000.0001) %MON trcstat_ptracer23_min        =   4.0116943631380046E-14
(PID.TID 0000.0001) %MON trcstat_ptracer23_mean       =   4.5135615504453639E-03
(PID.TID 0000.0001) %MON trcstat_ptracer23_sd         =   2.5607855483843492E-02
(PID.TID 0000.0001) %MON trcstat_ptracer23_del2       =   0.0000000000000000E+00
(PID.TID 0000.0001) %MON trcstat_ptracer24_max        =   2.9525510966777802E-02
(PID.TID 0000.0001) %MON trcstat_ptracer24_min        =   4.0116943631380054E-15
(PID.TID 0000.0001) %MON trcstat_ptracer24_mean       =   4.5135615504453633E-04
(PID.TID 0000.0001) %MON trcstat_ptracer24_sd         =   2.5607855483843495E-03
(PID.TID 0000.0001) %MON trcstat_ptracer24_del2       =   0.0000000000000000E+00
(PID.TID 0000.0001) %MON trcstat_ptracer25_max        =   2.9525510966777802E-01
(PID.TID 0000.0001) %MON trcstat_ptracer25_min        =   4.0116943631380046E-14
(PID.TID 0000.0001) %MON trcstat_ptracer25_mean       =   4.5135615504453639E-03
(PID.TID 0000.0001) %MON trcstat_ptracer25_sd         =   2.5607855483843492E-02
(PID.TID 0000.0001) %MON trcstat_ptracer25_del2       =   0.0000000000000000E+00
(PID.TID 0000.0001) %MON trcstat_ptracer26_max        =   4.5883968472480774E-01
(PID.TID 0000.0001) %MON trcstat_ptracer26_min        =   1.4295748959614052E-09
(PID.TID 0000.0001) %MON trcstat_ptracer26_mean       =   1.5988607558836673E-02
(PID.TID 0000.0001) %MON trcstat_ptracer26_sd         =   5.9142973355772274E-02
(PID.TID 0000.0001) %MON trcstat_ptracer26_del2       =   0.0000000000000000E+00
(PID.TID 0000.0001) %MON trcstat_ptracer27_max        =   4.5883968472480774E-01
(PID.TID 0000.0001) %MON trcstat_ptracer27_min        =   1.4295748959614052E-09
(PID.TID 0000.0001) %MON trcstat_ptracer27_mean       =   1.5988607558836673E-02
(PID.TID 0000.0001) %MON trcstat_ptracer27_sd         =   5.9142973355772274E-02
(PID.TID 0000.0001) %MON trcstat_ptracer27_del2       =   0.0000000000000000E+00
(PID.TID 0000.0001) %MON trcstat_ptracer28_max        =   1.3000296146117982E-01
(PID.TID 0000.0001) %MON trcstat_ptracer28_min        =   2.0058471815690023E-14
(PID.TID 0000.0001) %MON trcstat_ptracer28_mean       =   1.8170650137014526E-03
(PID.TID 0000.0001) %MON trcstat_ptracer28_sd         =   1.0628019816132931E-02
(PID.TID 0000.0001) %MON trcstat_ptracer28_del2       =   0.0000000000000000E+00
(PID.TID 0000.0001) %MON trcstat_ptracer29_max        =   1.2919119520486214E-01
(PID.TID 0000.0001) %MON trcstat_ptracer29_min        =   2.0058471815690023E-14
(PID.TID 0000.0001) %MON trcstat_ptracer29_mean       =   1.8021889020030950E-03
(PID.TID 0000.0001) %MON trcstat_ptracer29_sd         =   1.0549297612570133E-02
(PID.TID 0000.0001) %MON trcstat_ptracer29_del2       =   0.0000000000000000E+00
(PID.TID 0000.0001) %MON trcstat_ptracer30_max        =   5.0622812570966548E-02
(PID.TID 0000.0001) %MON trcstat_ptracer30_min        =   8.0233887262760092E-15
(PID.TID 0000.0001) %MON trcstat_ptracer30_mean       =   7.0225714461745882E-04
(PID.TID 0000.0001) %MON trcstat_ptracer30_sd         =   4.1199159392467906E-03
(PID.TID 0000.0001) %MON trcstat_ptracer30_del2       =   0.0000000000000000E+00
(PID.TID 0000.0001) %MON trcstat_ptracer31_max        =   5.0622812570966548E-02
(PID.TID 0000.0001) %MON trcstat_ptracer31_min        =   8.0233887262760092E-15
(PID.TID 0000.0001) %MON trcstat_ptracer31_mean       =   7.0225714461745882E-04
(PID.TID 0000.0001) %MON trcstat_ptracer31_sd         =   4.1199159392467906E-03
(PID.TID 0000.0001) %MON trcstat_ptracer31_del2       =   0.0000000000000000E+00
(PID.TID 0000.0001) %MON trcstat_ptracer32_max        =   9.3980962946221842E-03
(PID.TID 0000.0001) %MON trcstat_ptracer32_min        =   2.0058471815690027E-15
(PID.TID 0000.0001) %MON trcstat_ptracer32_mean       =   1.3013027541128867E-04
(PID.TID 0000.0001) %MON trcstat_ptracer32_sd         =   7.6057293444122963E-04
(PID.TID 0000.0001) %MON trcstat_ptracer32_del2       =   0.0000000000000000E+00
(PID.TID 0000.0001) %MON trcstat_ptracer33_max        =   1.2604303664471883E-01
(PID.TID 0000.0001) %MON trcstat_ptracer33_min        =   2.0058471815690023E-14
(PID.TID 0000.0001) %MON trcstat_ptracer33_mean       =   1.7468429743976951E-03
(PID.TID 0000.0001) %MON trcstat_ptracer33_sd         =   1.0252064062772435E-02
(PID.TID 0000.0001) %MON trcstat_ptracer33_del2       =   0.0000000000000000E+00
(PID.TID 0000.0001) // =======================================================
(PID.TID 0000.0001) // End MONITOR ptracers field statistics
(PID.TID 0000.0001) // =======================================================
(PID.TID 0000.0001) // =======================================================
(PID.TID 0000.0001) // Begin MONITOR EXF statistics
(PID.TID 0000.0001) // =======================================================
(PID.TID 0000.0001) %MON exf_tsnumber                 =                     0
(PID.TID 0000.0001) %MON exf_time_sec                 =   0.0000000000000000E+00
(PID.TID 0000.0001) %MON exf_ustress_max              =   0.0000000000000000E+00
(PID.TID 0000.0001) %MON exf_ustress_min              =   0.0000000000000000E+00
(PID.TID 0000.0001) %MON exf_ustress_mean             =   0.0000000000000000E+00
(PID.TID 0000.0001) %MON exf_ustress_sd               =   0.0000000000000000E+00
(PID.TID 0000.0001) %MON exf_ustress_del2             =   0.0000000000000000E+00
(PID.TID 0000.0001) %MON exf_vstress_max              =   0.0000000000000000E+00
(PID.TID 0000.0001) %MON exf_vstress_min              =   0.0000000000000000E+00
(PID.TID 0000.0001) %MON exf_vstress_mean             =   0.0000000000000000E+00
(PID.TID 0000.0001) %MON exf_vstress_sd               =   0.0000000000000000E+00
(PID.TID 0000.0001) %MON exf_vstress_del2             =   0.0000000000000000E+00
(PID.TID 0000.0001) %MON exf_hflux_max                =   0.0000000000000000E+00
(PID.TID 0000.0001) %MON exf_hflux_min                =   0.0000000000000000E+00
(PID.TID 0000.0001) %MON exf_hflux_mean               =   0.0000000000000000E+00
(PID.TID 0000.0001) %MON exf_hflux_sd                 =   0.0000000000000000E+00
(PID.TID 0000.0001) %MON exf_hflux_del2               =   0.0000000000000000E+00
(PID.TID 0000.0001) %MON exf_sflux_max                =   0.0000000000000000E+00
(PID.TID 0000.0001) %MON exf_sflux_min                =   0.0000000000000000E+00
(PID.TID 0000.0001) %MON exf_sflux_mean               =   0.0000000000000000E+00
(PID.TID 0000.0001) %MON exf_sflux_sd                 =   0.0000000000000000E+00
(PID.TID 0000.0001) %MON exf_sflux_del2               =   0.0000000000000000E+00
(PID.TID 0000.0001) %MON exf_uwind_max                =   0.0000000000000000E+00
(PID.TID 0000.0001) %MON exf_uwind_min                =   0.0000000000000000E+00
(PID.TID 0000.0001) %MON exf_uwind_mean               =   0.0000000000000000E+00
(PID.TID 0000.0001) %MON exf_uwind_sd                 =   0.0000000000000000E+00
(PID.TID 0000.0001) %MON exf_uwind_del2               =   0.0000000000000000E+00
(PID.TID 0000.0001) %MON exf_vwind_max                =   0.0000000000000000E+00
(PID.TID 0000.0001) %MON exf_vwind_min                =   0.0000000000000000E+00
(PID.TID 0000.0001) %MON exf_vwind_mean               =   0.0000000000000000E+00
(PID.TID 0000.0001) %MON exf_vwind_sd                 =   0.0000000000000000E+00
(PID.TID 0000.0001) %MON exf_vwind_del2               =   0.0000000000000000E+00
(PID.TID 0000.0001) %MON exf_wspeed_max               =   0.0000000000000000E+00
(PID.TID 0000.0001) %MON exf_wspeed_min               =   0.0000000000000000E+00
(PID.TID 0000.0001) %MON exf_wspeed_mean              =   0.0000000000000000E+00
(PID.TID 0000.0001) %MON exf_wspeed_sd                =   0.0000000000000000E+00
(PID.TID 0000.0001) %MON exf_wspeed_del2              =   0.0000000000000000E+00
(PID.TID 0000.0001) %MON exf_evap_max                 =   0.0000000000000000E+00
(PID.TID 0000.0001) %MON exf_evap_min                 =   0.0000000000000000E+00
(PID.TID 0000.0001) %MON exf_evap_mean                =   0.0000000000000000E+00
(PID.TID 0000.0001) %MON exf_evap_sd                  =   0.0000000000000000E+00
(PID.TID 0000.0001) %MON exf_evap_del2                =   0.0000000000000000E+00
(PID.TID 0000.0001) // =======================================================
(PID.TID 0000.0001) // End MONITOR EXF statistics
(PID.TID 0000.0001) // =======================================================
 EXTERNAL_FIELDS_LOAD,         0 : iP,iLd,i0,i1=   12    0   12    1 ; Wght=  0.5000000000  0.5000000000
 EXTERNAL_FIELDS_LOAD, it=         0 : Reading new data, i0,i1=   12    1 (prev=   12    0 )
(PID.TID 0000.0001)  MDS_READ_FIELD: opening global file: ../input/input/loc1_taux_monsurf.bin
(PID.TID 0000.0001)  MDS_READ_FIELD: opening global file: ../input/input/loc1_taux_monsurf.bin
(PID.TID 0000.0001)  MDS_READ_FIELD: opening global file: ../input/input/loc1_tauy_monsurf.bin
(PID.TID 0000.0001)  MDS_READ_FIELD: opening global file: ../input/input/loc1_tauy_monsurf.bin
(PID.TID 0000.0001)  MDS_READ_FIELD: opening global file: ../input/input/loc1_temp_monsurf.bin
(PID.TID 0000.0001)  MDS_READ_FIELD: opening global file: ../input/input/loc1_temp_monsurf.bin
 mean surface dic   2073.1443851912177        35.000000000000000     
 limit           1           1           1  0.97203802186839772        8.1283038327941232E-002  0.77332724129353270       0.74731011625618038       0.74778899368884255        2.9381351884108201E-003  0.24927287112274668     
 chl2c           1           1           1  0.23593163917463292        1.1221899656978928E-006   1.0000000000000000     
 limit           1           1           2  0.97203802186839772        8.1283038327941232E-002   1.0000000000000000       0.74731011625618038       0.74778899368884255        2.9381351884108201E-003  0.24927287112274668     
 chl2c           1           1           2  0.22970778447052459        1.0660804674129983E-006   1.0000000000000000     
 limit           1           1           3  0.99023357792484323       0.20511945741239962        1.0000000000000000       0.98010738257964214       0.80295981092386526        2.2954220813879746E-003  0.19474476699474677     
 chl2c           1           1           3   8.4474213103160237E-002   1.5373007337370526E-006   1.0000000000000000     
 limit           1           1           4  0.99104015429486603       0.21967043709833106        1.0000000000000000       0.89786708271081717       0.89234720342507778       0.10765279657492230        0.0000000000000000     
 chl2c           1           1           4   8.4474213103160237E-002   1.6463551422622377E-006   1.0000000000000000     
 limit           1           1           5  0.97203802186839772        2.1639982209498271E-002   1.0000000000000000        1.0000000000000000        0.0000000000000000        0.0000000000000000        0.0000000000000000     
 chl2c           1           1           5   8.9817773778577553E-002   7.0955647153695697E-008   1.0000000000000000     
 limit           1           1           6  0.97750461439866887        9.9580251558884822E-002   1.0000000000000000       0.80277816332009122       0.76348579211171497        2.7552751440924729E-003  0.23375893274419252     
 chl2c           1           1           6  0.20784083746368343        1.0883837033204132E-006   1.0000000000000000     
 consum   6.6219257188159839E-007   8.9151001290853120E-008
 reminPOC   5.3722040080451265E-008  0.45327711305703122        3.8580246913580245E-007  0.30720176218341205     
 reminPOSi   2.7832262208013712E-009  0.45327711305703122        7.7160493827160495E-008   7.9577394892751563E-002
 reminDOC   2.1153168036024331E-006   1.7450981078132684E-010
 limit           1           2           1  0.97194466948900504        7.9799188673925978E-002  0.77302481529157763       0.74730605060168531       0.74773233974151732        2.9463441775731121E-003  0.24932131608090952     
 chl2c           1           2           1  0.24756615430867385        1.1014677893620328E-006   1.0000000000000000     
 limit           1           2           2  0.97194466948900504        7.9799188673925978E-002   1.0000000000000000       0.74730605060168531       0.74773233974151732        2.9463441775731121E-003  0.24932131608090952     
 chl2c           1           2           2  0.24131063278011344        1.0463943998965386E-006   1.0000000000000000     
 limit           1           2           3  0.99020035984482535       0.20187167487848115        1.0000000000000000       0.98012901792001317       0.80291060389236624        2.3018931324297696E-003  0.19478750297520395     
 chl2c           1           2           3   8.9042792360775530E-002   1.5126176805008689E-006   1.0000000000000000     
 limit           1           2           4  0.99100965467867175       0.21625494103582946        1.0000000000000000       0.89788391046575944       0.89229782802178848       0.10770217197821157        0.0000000000000000     
 chl2c           1           2           4   8.9042792360775530E-002   1.6203695666093455E-006   1.0000000000000000     
 limit           1           2           5  0.97194466948900504        2.1219788604324479E-002   1.0000000000000000        1.0000000000000000        0.0000000000000000        0.0000000000000000        0.0000000000000000     
 chl2c           1           2           5   9.6785927860929627E-002   6.9562950236691475E-008   1.0000000000000000     
 limit           1           2           6  0.97742908871600254        9.7797936838973976E-002   1.0000000000000000       0.80277910065421332       0.76343050332259588        2.7629984692159278E-003  0.23380649820818811     
 chl2c           1           2           6  0.21921558207444050        1.0686743303779642E-006   1.0000000000000000     
 consum   6.5150010696820767E-007   8.7626036270332039E-008
 reminPOC   5.5387259113081914E-008  0.45317992653142930        3.8580246913580245E-007  0.31679200074002345     
 reminPOSi   2.8699661968692725E-009  0.45317992653142930        7.7160493827160495E-008   8.2075042899867307E-002
 reminDOC   2.1150625819455695E-006   1.8233899428094565E-010
 limit           1           3           1  0.97175464558136737        7.8124014176640763E-002  0.77376619868181884       0.74738686218959249       0.74738396766961324        2.9409737963903815E-003  0.24967505853399641     
 chl2c           1           3           1  0.27026311908468675        1.0773118243042137E-006   1.0000000000000000     
 limit           1           3           2  0.97175464558136737        7.8124014176640763E-002   1.0000000000000000       0.74738686218959249       0.74738396766961324        2.9409737963903815E-003  0.24967505853399641     
 chl2c           1           3           2  0.26404783606232168        1.0234462362099113E-006   1.0000000000000000     
 limit           1           3           3  0.99013272978444589       0.19818582032781212        1.0000000000000000       0.98025989558953308       0.80266467460422386        2.2973918786441823E-003  0.19503793351713195     
 chl2c           1           3           3   9.8116966198926167E-002   1.4831969876547861E-006   1.0000000000000000     
 limit           1           3           4  0.99094755872873097       0.21237635114221798        1.0000000000000000       0.89794787281610877       0.89209037621116871       0.10790962378883133        0.0000000000000000     
 chl2c           1           3           4   9.8116966198926167E-002   1.5890855088666614E-006   1.0000000000000000     
 limit           1           3           5  0.97175464558136737        2.0746609877288057E-002   1.0000000000000000        1.0000000000000000        0.0000000000000000        0.0000000000000000        0.0000000000000000     
 chl2c           1           3           5  0.11195123883420159        6.7946585019188151E-008   1.0000000000000000     
 limit           1           3           6  0.97727534326840870        9.5784255095064511E-002   1.0000000000000000       0.80286338211431962       0.76311069009737986        2.7578821765256696E-003  0.23413142772609438     
 chl2c           1           3           6  0.24186364594860962        1.0456668766056683E-006   1.0000000000000000     
 consum   6.3901176220165794E-007   8.5865322810056305E-008
 reminPOC   5.7643140314685770E-008  0.45274557957227035        3.8580246913580245E-007  0.33001099610253737     
 reminPOSi   2.9885044878565650E-009  0.45274557957227035        7.7160493827160495E-008   8.5546982477911912E-002
 reminDOC   2.1139274558375190E-006   1.9292940558657526E-010
 limit           1           4           1  0.97154239853596780        7.2614256437969732E-002  0.77911338311605727       0.74978604542883087       0.73362805144276966        3.1358717310596817E-003  0.26323607682617062     
 chl2c           1           4           1  0.34095868810733282        9.9578474255493108E-007   1.0000000000000000     
 limit           1           4           2  0.97154239853596780        7.2614256437969732E-002   1.0000000000000000       0.74978604542883087       0.73362805144276966        3.1358717310596817E-003  0.26323607682617062     
 chl2c           1           4           2  0.33538182316997611        9.4599553855566911E-007   1.0000000000000000     
 limit           1           4           3  0.99005717009548933       0.18591625435246617        1.0000000000000000       0.98547697111269650       0.79248665703034471        2.4429570364329235E-003  0.20507038593322241     
 chl2c           1           4           3  0.12722073490298152        1.3831106273761913E-006   1.0000000000000000     
 limit           1           4           4  0.99087818119646665       0.19944678661093221        1.0000000000000000       0.89986865997620336       0.88401419165562567       0.11598580834437436        0.0000000000000000     
 chl2c           1           4           4  0.12722073490298152        1.4831342568649697E-006   1.0000000000000000     
 limit           1           4           5  0.97154239853596780        1.9199163865749005E-002   1.0000000000000000        1.0000000000000000        0.0000000000000000        0.0000000000000000        0.0000000000000000     
 chl2c           1           4           5  0.16957329620682104        6.2530159583053633E-008   1.0000000000000000     
 limit           1           4           6  0.97710360352359660        8.9149440464661542E-002   1.0000000000000000       0.80560974116361628       0.75031057081953179        2.9394762727548663E-003  0.24674995290771334     
 chl2c           1           4           6  0.31480016504385178        9.6784210171231915E-007   1.0000000000000000     
 consum   6.1141787323960245E-007   8.1873905141437147E-008
 reminPOC   7.5884016823775155E-008  0.45023675620490899        3.8580246913580245E-007  0.43686209288010291     
 reminPOSi   3.9744986892341019E-009  0.45023675620490899        7.7160493827160495E-008  0.11440537073572749     
 reminDOC   2.1355503062673692E-006   2.8412721348754231E-010
 limit           1           5           1  0.97174004616133092        6.8054130866628690E-002  0.78453382918418968       0.75378712044968510       0.71206651293124335        3.4872235230012966E-003  0.28444626354575542     
 chl2c           1           5           1  0.38411386485167559        9.2592841826558100E-007   1.0000000000000000     
 limit           1           5           2  0.97174004616133092        6.8054130866628690E-002   1.0000000000000000       0.75378712044968510       0.71206651293124335        3.4872235230012966E-003  0.28444626354575542     
 chl2c           1           5           2  0.37948485817767080        8.7963326072241943E-007   1.0000000000000000     
 limit           1           5           3  0.99012753309656509       0.17558802502925550        1.0000000000000000       0.99376528288588695       0.77649858517592252        2.7068730321474499E-003  0.22079454179193014     
 chl2c           1           5           3  0.14593182673802049        1.2923810096353818E-006   1.0000000000000000     
 limit           1           5           4  0.99094278725242746       0.18854097839254863        1.0000000000000000       0.90292490937605130       0.87119723731426058       0.12880276268573942        0.0000000000000000     
 chl2c           1           5           4  0.14593182673802049        1.3854145558646119E-006   1.0000000000000000     
 limit           1           5           5  0.97174004616133092        1.7928620216511596E-002   1.0000000000000000        1.0000000000000000        0.0000000000000000        0.0000000000000000        0.0000000000000000     
 chl2c           1           5           5  0.22024175250881137        5.7934196504270263E-008   1.0000000000000000     
 limit           1           5           6  0.97726353061400417        8.3644573888856946E-002   1.0000000000000000       0.81011265206855287       0.73021263795697278        3.2674519546253824E-003  0.26651991008840170     
 chl2c           1           5           6  0.36203331244299336        9.0095332373271994E-007   1.0000000000000000     
 consum   5.9408916772158974E-007   7.9441377970709029E-008
 reminPOC   9.8261810739802397E-008  0.44670606148344261        3.8580246913580245E-007  0.57016153439191286     
 reminPOSi   5.1920432649800490E-009  0.44670606148344261        7.7160493827160495E-008  0.15063346239512698     
 reminDOC   2.1675988938655062E-006   3.9980192025769533E-010
 limit           1           6           1  0.97203691146256943       0.30637020117815927       0.78967736769770491       0.81812835335777923       0.46650185534700955        7.3238265564658034E-003  0.52617431809652471     
 chl2c           1           6           1  0.41589424047167206        3.4861887302292102E-006   1.0000000000000000     
 limit           1           6           2  0.97203691146256943       0.30637020117815927        1.0000000000000000       0.81812835335777923       0.46650185534700955        7.3238265564658034E-003  0.52617431809652471     
 chl2c           1           6           2  0.41224459656038726        3.3596054039399586E-006   1.0000000000000000     
 limit           1           6           3  0.99023318282755501       0.56298788787214216        1.0000000000000000        1.0000000000000000       0.59025306393203192        5.6249783094503561E-003  0.40412195775851778     
 chl2c           1           6           3  0.16021144553080838        2.8714798628779026E-006   1.0000000000000000     
 limit           1           6           4  0.99103979153209776       0.58426547878265911        1.0000000000000000       0.91449120000938344       0.72456455000902698       0.27543544999097297        0.0000000000000000     
 chl2c           1           6           4  0.16021144553080838        2.9222785538569119E-006   1.0000000000000000     
 limit           1           6           5  0.97203691146256943        9.9442129123374329E-002   1.0000000000000000        1.0000000000000000        0.0000000000000000        0.0000000000000000        0.0000000000000000     
 chl2c           1           6           5  0.27005673031393679        3.1899579406106353E-007   1.0000000000000000     
 limit           1           6           6  0.97750371605410702       0.35571744516337783        1.0000000000000000       0.87492973036082944       0.49777506024420554        6.8945101083629553E-003  0.49533042964743157     
 chl2c           1           6           6  0.39826488325698994        3.2489933735818097E-006   1.0000000000000000     
 consum   3.2274078748899930E-006   5.2691122477948148E-007
 reminPOC   1.4276433001094081E-007  0.44345376158303823        3.8580246913580245E-007  0.83446161797652585     
 reminPOSi   7.7557119924141178E-009  0.44345376158303823        7.7160493827160495E-008  0.22666179910814752     
 reminDOC   2.0362826494791690E-006   6.8309283798453711E-010
 limit           1           7           1  0.97232755266611481       0.44790143806361438       0.79458236953273720       0.94812995660008192        7.4338269852351355E-002   1.4095562866650134E-002  0.91156616728099849     
 chl2c           1           7           1  0.44030544754868800        3.2191283063100439E-006   1.0000000000000000     
 limit           1           7           2  0.97232755266611481       0.44790143806361438        1.0000000000000000       0.94812995660008192        7.4338269852351355E-002   1.4095562866650134E-002  0.91156616728099849     
 chl2c           1           7           2  0.43755602872922000        3.1501802305609840E-006   1.0000000000000000     
 limit           1           7           3  0.99033657682599663       0.70292969067386946        1.0000000000000000        1.0000000000000000       0.16803521128224055        1.2668787744244269E-002  0.81929600097351529     
 chl2c           1           7           3  0.17145369749884853        2.2659323397339823E-006   1.0000000000000000     
 limit           1           7           4  0.99113472301357408       0.72077304666783215        1.0000000000000000       0.73129779196749567       0.26578994001276834       0.73421005998723166        0.0000000000000000     
 chl2c           1           7           4  0.17145369749884853        2.2808114992351390E-006   1.0000000000000000     
 limit           1           7           5  0.97232755266611481       0.16861881772291301        1.0000000000000000        1.0000000000000000        0.0000000000000000        0.0000000000000000        0.0000000000000000     
 chl2c           1           7           5  0.31830254094895838        5.3602896634370138E-007   1.0000000000000000     
 limit           1           7           6  0.97773883796609695       0.50349748561268426        1.0000000000000000       0.96993353876192567        8.9261148447248889E-002   1.3868323944984641E-002  0.89687052760776653     
 chl2c           1           7           6  0.42689337164964192        3.0294612017579070E-006   1.0000000000000000     
 consum   4.1323298924530015E-006   7.1540132436749064E-007
 reminPOC   1.8665889131204808E-007  0.44034462358649784        3.8580246913580245E-007   1.0987299954754435     
 reminPOSi   1.0284355414512975E-008  0.44034462358649784        7.7160493827160495E-008  0.30268394124245879     
 reminDOC   1.9070990698625570E-006   9.6637051173915100E-010
 limit           1           8           1  0.97237132846457008       0.76969986396595969       0.80271679892237346       0.95447708557791899        5.1665179233990943E-002   1.1320318240730383E-002  0.93701450252527863     
 chl2c           1           8           1  0.45833960150198771        2.3909485232476515E-006   1.0000000000000000     
 limit           1           8           2  0.97237132846457008       0.76969986396595969        1.0000000000000000       0.95447708557791899        5.1665179233990943E-002   1.1320318240730383E-002  0.93701450252527863     
 chl2c           1           8           2  0.45633844096341492        2.3660557997746535E-006   1.0000000000000000     
 limit           1           8           3  0.99035214633824176       0.90695914152013990        1.0000000000000000        1.0000000000000000       0.12441744495938084        1.0451870955329269E-002  0.86513068408528992     
 chl2c           1           8           3  0.17991692577524818        1.5597273021654567E-006   1.0000000000000000     
 limit           1           8           4  0.99114901806184652       0.91404611109232381        1.0000000000000000       0.63954887751166067       0.22150577752713405       0.77849422247286604        0.0000000000000000     
 chl2c           1           8           4  0.17991692577524818        1.4781984698503154E-006   1.0000000000000000     
 limit           1           8           5  0.97237132846457008       0.45520118173599389        1.0000000000000000        1.0000000000000000        0.0000000000000000        0.0000000000000000        0.0000000000000000     
 chl2c           1           8           5  0.36161070464097556        1.1158956526690898E-006   1.0000000000000000     
 limit           1           8           6  0.97777424917783728       0.80686404377440391        1.0000000000000000       0.97193939394260453        6.2648819787050128E-002   1.1189205996637114E-002  0.92616197421631274     
 chl2c           1           8           6  0.44850556395747554        2.2872716543751331E-006   1.0000000000000000     
 consum   1.9677908735149493E-006   3.5322459703463638E-007
 reminPOC   1.9296005052112879E-007  0.43724899755108038        3.8580246913580245E-007   1.1438618584650659     
 reminPOSi   1.0851767550605842E-008  0.43724899755108038        7.7160493827160495E-008  0.32164489397010443     
 reminDOC   1.4386707277941469E-006   1.0451168674746901E-009
 limit           1           9           1  0.97241496662693783       0.85450706964495704       0.81023327856718064       0.96065072042826705        2.8459228219402870E-002   8.4026462470515040E-003  0.96313812553354561     
 chl2c           1           9           1  0.47128303570646141        1.5684114410698175E-006   1.0000000000000000     
 limit           1           9           2  0.97241496662693783       0.85450706964495704        1.0000000000000000       0.96065072042826705        2.8459228219402870E-002   8.4026462470515040E-003  0.96313812553354561     
 chl2c           1           9           2  0.46986273275940182        1.5642793646937675E-006   1.0000000000000000     
 limit           1           9           3  0.99036766599015558       0.94484318651455657        1.0000000000000000        1.0000000000000000        7.3612037240184100E-002   8.0121293564768062E-003  0.91837583340333917     
 chl2c           1           9           3  0.18607584496364740        1.0289423799018026E-006   1.0000000000000000     
 limit           1           9           4  0.99116326729422788       0.94920611858472481        1.0000000000000000       0.51806208531725551       0.15846009868129207       0.84153990131870793        0.0000000000000000     
 chl2c           1           9           4  0.18607584496364740        9.6380998731643214E-007   1.0000000000000000     
 limit           1           9           5  0.97241496662693783       0.59486229449399108        1.0000000000000000        1.0000000000000000        0.0000000000000000        0.0000000000000000        0.0000000000000000     
 chl2c           1           9           5  0.39791324625619656        9.9908231761215792E-007   1.0000000000000000     
 limit           1           9           6  0.97780954843213763       0.88011723681293652        1.0000000000000000       0.97331838028707685        3.4872692655060218E-002   8.3471775786886655E-003  0.95678012976625104     
 chl2c           1           9           6  0.46426612265945216        1.5277979109700995E-006   1.0000000000000000     
 consum   6.1349356939445265E-007   1.1103491421799916E-007
 reminPOC   1.9842399211675418E-007  0.43259495745361137        3.8580246913580245E-007   1.1889065711584921     
 reminPOSi   1.1368398693313273E-008  0.43259495745361137        7.7160493827160495E-008  0.34058290446240164     
 reminDOC   9.7317050580221951E-007   1.1237759551749302E-009
 limit           1          10           1  0.97269254665929417       0.86884104579206867       0.81875949364113321       0.96273672393440102        2.1784327733186445E-002   7.3653878125141663E-003  0.97085028445429944     
 chl2c           1          10           1  0.48038088179237531        1.0436098394893956E-006   1.0000000000000000     
 limit           1          10           2  0.97269254665929417       0.86884104579206867        1.0000000000000000       0.96273672393440102        2.1784327733186445E-002   7.3653878125141663E-003  0.97085028445429944     
 chl2c           1          10           2  0.47939086455552898        1.0419905325004087E-006   1.0000000000000000     
 limit           1          10           3  0.99046636445228975       0.95078977833348732        1.0000000000000000        1.0000000000000000        5.7611948071555147E-002   7.0956269349562459E-003  0.93529242499348864     
 chl2c           1          10           3  0.19044803271295366        6.8789251706272880E-007   1.0000000000000000     
 limit           1          10           4  0.99125388555897076       0.95470488157083755        1.0000000000000000       0.47341375596327634       0.13478912376287572       0.86521087623712423        0.0000000000000000     
 chl2c           1          10           4  0.19044803271295366        6.5244310947154026E-007   1.0000000000000000     
 limit           1          10           5  0.97269254665929417       0.62350590031047770        1.0000000000000000        1.0000000000000000        0.0000000000000000        0.0000000000000000        0.0000000000000000     
 chl2c           1          10           5  0.42663641816177961        7.6568915925218986E-007   1.0000000000000000     
 limit           1          10           6  0.97803407060904957       0.89224626314610422        1.0000000000000000       0.97388816816130996        2.6778207626952114E-002   7.3277868384657050E-003  0.96589400553458216     
 chl2c           1          10           6  0.47547127452970372        1.0252896191404485E-006   1.0000000000000000     
 consum   2.5413786541740937E-007   4.6038293179598020E-008
 reminPOC   1.9992631831099228E-007  0.42797857569937992        3.8580246913580245E-007   1.2108293416680083     
 reminPOSi   1.1650785089594747E-008  0.42797857569937992        7.7160493827160495E-008  0.35280778836744625     
 reminDOC   8.2655576110178561E-007   1.1643806156598604E-009
 limit           1          11           1  0.97304028490965389       0.87149214078464399       0.82702428788437410       0.96347777093595210        2.0783634573921593E-002   6.9958369504510747E-003  0.97222052847562734     
 chl2c           1          11           1  0.48667721123415042        6.9474402906568491E-007   1.0000000000000000     
 limit           1          11           2  0.97304028490965389       0.87149214078464399        1.0000000000000000       0.96347777093595210        2.0783634573921593E-002   6.9958369504510747E-003  0.97222052847562734     
 chl2c           1          11           2  0.48599565405397099        6.9382831607114785E-007   1.0000000000000000     
 limit           1          11           3  0.99058995717788534       0.95187620310706078        1.0000000000000000        1.0000000000000000        5.5166710600786900E-002   6.7501931864865613E-003  0.93808309621272656     
 chl2c           1          11           3  0.19349500852106258        4.5943842327897632E-007   1.0000000000000000     
 limit           1          11           4  0.99136735795211672       0.95570889818246962        1.0000000000000000       0.46262853338982823       0.13195766771053166       0.86804233228946837        0.0000000000000000     
 chl2c           1          11           4  0.19349500852106258        4.4271800213402209E-007   1.0000000000000000     
 limit           1          11           5  0.97304028490965389       0.62899841969146675        1.0000000000000000        1.0000000000000000        0.0000000000000000        0.0000000000000000        0.0000000000000000     
 chl2c           1          11           5  0.44832515788235561        5.6012214874339108E-007   1.0000000000000000     
 limit           1          11           6  0.97831530528947963       0.89448172715749685        1.0000000000000000       0.97431902450524244        2.5562499172857561E-002   6.9616952033123916E-003  0.96747580562382995     
 chl2c           1          11           6  0.48328841086112240        6.8625036285752878E-007   1.0000000000000000     
 consum   1.3322308707268676E-007   2.4114646260742342E-008
 reminPOC   2.0018676876777472E-007  0.42356595191807034        3.8580246913580245E-007   1.2250373343191641     
 reminPOSi   1.1856998349706412E-008  0.42356595191807034        7.7160493827160495E-008  0.36279284941656170     
 reminDOC   7.8529498595176036E-007   1.1922882832983045E-009
 limit           1          12           1  0.97337928386819250       0.87403473810831001       0.83456850719626852       0.96420404900125956        1.9784981863057889E-002   6.6378402581456783E-003  0.97357717787879650     
 chl2c           1          12           1  0.49099020616776595        4.6178105013935745E-007   1.0000000000000000     
 limit           1          12           2  0.97337928386819250       0.87403473810831001        1.0000000000000000       0.96420404900125956        1.9784981863057889E-002   6.6378402581456783E-003  0.97357717787879650     
 chl2c           1          12           2  0.49052499387457127        4.6130144759070399E-007   1.0000000000000000     
 limit           1          12           3  0.99071038845265269       0.95291428813396561        1.0000000000000000        1.0000000000000000        5.2708359254034394E-002   6.4148890527098356E-003  0.94087675169325580     
 chl2c           1          12           3  0.19559225360777591        3.0611504851420059E-007   1.0000000000000000     
 limit           1          12           4  0.99147792551813885       0.95666807123008024        1.0000000000000000       0.45155672582014655       0.12904984832233196       0.87095015167766798        0.0000000000000000     
 chl2c           1          12           4  0.19559225360777591        2.9825536179334840E-007   1.0000000000000000     
 limit           1          12           5  0.97337928386819250       0.63432572128820008        1.0000000000000000        1.0000000000000000        0.0000000000000000        0.0000000000000000        0.0000000000000000     
 chl2c           1          12           5  0.46413895011770778        3.9829514441850958E-007   1.0000000000000000     
 limit           1          12           6  0.97858943417554711       0.89662341886337960        1.0000000000000000       0.97473716324549486        2.4347859470367286E-002   6.6069412695417742E-003  0.96904519926009092     
 chl2c           1          12           6  0.48867292841518406        4.5788669999986122E-007   1.0000000000000000     
 consum   6.4260363906721613E-008   1.1623312105022230E-008
 reminPOC   2.0049315406945432E-007  0.41935249550427117        3.8580246913580245E-007   1.2392396871827669     
 reminPOSi   1.2062129815252050E-008  0.41935249550427117        7.7160493827160495E-008  0.37277756560786784     
 reminDOC   7.4510632245478324E-007   1.2201873099032690E-009
 limit           1          13           1  0.97364678933214477       0.87632087055431562       0.84193889421292700       0.96490476710958295        1.8947776924989071E-002   6.2989623949152342E-003  0.97475326068009571     
 chl2c           1          13           1  0.49392456732262852        3.0701973458118858E-007   1.0000000000000000     
 limit           1          13           2  0.97364678933214477       0.87632087055431562        1.0000000000000000       0.96490476710958295        1.8947776924989071E-002   6.2989623949152342E-003  0.97475326068009571     
 chl2c           1          13           2  0.49360889550645642        3.0677578631277894E-007   1.0000000000000000     
 limit           1          13           3  0.99080538272009777       0.95384444057889495        1.0000000000000000        1.0000000000000000        5.0636594191026646E-002   6.0955005774877558E-003  0.94326790523148563     
 chl2c           1          13           3  0.19702382578854358        2.0387366425991890E-007   1.0000000000000000     
 limit           1          13           4  0.99156513788267486       0.95752737488295714        1.0000000000000000       0.44113451607259108       0.12681182085001808       0.87318817914998192        0.0000000000000000     
 chl2c           1          13           4  0.19702382578854358        2.0019106232556956E-007   1.0000000000000000     
 limit           1          13           5  0.97364678933214477       0.63916628241423457        1.0000000000000000        1.0000000000000000        0.0000000000000000        0.0000000000000000        0.0000000000000000     
 chl2c           1          13           5  0.47537980739039082        2.7759313701354822E-007   1.0000000000000000     
 limit           1          13           6  0.97880572402175425       0.89854717707973542        1.0000000000000000       0.97516159723299911        2.3328973564189299E-002   6.2708324011942571E-003  0.97040019403461653     
 chl2c           1          13           6  0.49235023347895163        3.0524138212759200E-007   1.0000000000000000     
 consum   3.3384485785232301E-008   6.0348634006671661E-009
 reminPOC   1.9949737653692946E-007  0.41517922683284469        3.8580246913580245E-007   1.2454794617937610     
 reminPOSi   1.2305651540810311E-008  0.41517922683284469        7.7160493827160495E-008  0.38412626080907070     
 reminDOC   7.0476105464148185E-007   1.2363639470122456E-009
 limit           1          14           1  0.97388827800406053       0.87847461930915371       0.84881968603281832       0.96558628990971818        1.8164685914449280E-002   5.9737264836055683E-003  0.97586158760194519     
 chl2c           1          14           1  0.49591106702359167        0.0000000000000000        1.0000000000000000     
 limit           1          14           2  0.97388827800406053       0.87847461930915371        1.0000000000000000       0.96558628990971818        1.8164685914449280E-002   5.9737264836055683E-003  0.97586158760194519     
 chl2c           1          14           2  0.49569771204391644        0.0000000000000000        1.0000000000000000     
 limit           1          14           3  0.99089110894100507       0.95471795184200037        1.0000000000000000        1.0000000000000000        4.8687861301400251E-002   5.7880160100088947E-003  0.94552412268859087     
 chl2c           1          14           3  0.19799514117410322        0.0000000000000000        1.0000000000000000     
 limit           1          14           4  0.99164384025018537       0.95833422990450001        1.0000000000000000       0.43075893990683833       0.12478158816638789       0.87521841183361204        0.0000000000000000     
 chl2c           1          14           4  0.19799514117410322        0.0000000000000000        1.0000000000000000     
 limit           1          14           5  0.97388827800406053       0.64377105258114287        1.0000000000000000        1.0000000000000000        0.0000000000000000        0.0000000000000000        0.0000000000000000     
 chl2c           1          14           5  0.48322395783221722        0.0000000000000000        1.0000000000000000     
 limit           1          14           6  0.97900095817478416       0.90035788628695923        1.0000000000000000       0.97557909655521968        2.2375169737077996E-002   5.9481088689616549E-003  0.97167672139396033     
 chl2c           1          14           6  0.49484612504813802        0.0000000000000000        1.0000000000000000     
 consum   0.0000000000000000        0.0000000000000000     
 reminPOC   1.9854746215688034E-007  0.41201701783520284        3.8580246913580245E-007   1.2490625377917661     
 reminPOSi   1.2587186069790984E-008  0.41201701783520284        7.7160493827160495E-008  0.39593008153303827     
 reminDOC   6.6642399023690853E-007   1.2486296365893603E-009
 limit           1          15           1  0.97418398127591344       0.88106347901811644       0.85662194326397845       0.96641744249176675        1.7186160410237086E-002   5.5817660117621322E-003  0.97723207357800079     
 chl2c           1          15           1  0.49751192105609920        0.0000000000000000        1.0000000000000000     
 limit           1          15           2  0.97418398127591344       0.88106347901811644        1.0000000000000000       0.96641744249176675        1.7186160410237086E-002   5.5817660117621322E-003  0.97723207357800079     
 chl2c           1          15           2  0.49738165537854440        0.0000000000000000        1.0000000000000000     
 limit           1          15           3  0.99099604314222411       0.95576438437177724        1.0000000000000000        1.0000000000000000        4.6236072301585891E-002   5.4167807375341062E-003  0.94834714696087996     
 chl2c           1          15           3  0.19877917150473046        0.0000000000000000        1.0000000000000000     
 limit           1          15           4  0.99174017528825908       0.95930065562796574        1.0000000000000000       0.41739652913844150       0.12218297734511459       0.87781702265488537        0.0000000000000000     
 chl2c           1          15           4  0.19877917150473046        0.0000000000000000        1.0000000000000000     
 limit           1          15           5  0.97418398127591344       0.64936414297177891        1.0000000000000000        1.0000000000000000        0.0000000000000000        0.0000000000000000        0.0000000000000000     
 chl2c           1          15           5  0.48968863528765627        0.0000000000000000        1.0000000000000000     
 limit           1          15           6  0.97923999689495633       0.90253228912662375        1.0000000000000000       0.97608317098883224        2.1182013599208412E-002   5.5590720725645516E-003  0.97325891432822698     
 chl2c           1          15           6  0.49686127420729537        0.0000000000000000        1.0000000000000000     
 consum   0.0000000000000000        0.0000000000000000     
 reminPOC   1.9773966288374244E-007  0.40887498212681062        3.8580246913580245E-007   1.2535401494330074     
 reminPOSi   1.2956686750497232E-008  0.40887498212681062        7.7160493827160495E-008  0.41068460440645138     
 reminDOC   6.2044577305643213E-007   1.2639594667742092E-009
 limit           1          16           1  0.97457311571115635       0.88355429267439933       0.86601531199495507       0.96736642509748960        1.6200734554688921E-002   5.1781317438648854E-003  0.97862113370144621     
 chl2c           1          16           1  0.49863137531962987        0.0000000000000000        1.0000000000000000     
 limit           1          16           2  0.97457311571115635       0.88355429267439933        1.0000000000000000       0.96736642509748960        1.6200734554688921E-002   5.1781317438648854E-003  0.97862113370144621     
 chl2c           1          16           2  0.49855955001390045        0.0000000000000000        1.0000000000000000     
 limit           1          16           3  0.99113406942120741       0.95676754684548038        1.0000000000000000        1.0000000000000000        4.3751805940175408E-002   5.0331193593983244E-003  0.95121507470042621     
 chl2c           1          16           3  0.19932811269496697        0.0000000000000000        1.0000000000000000     
 limit           1          16           4  0.99186688800224343       0.96022696077041492        1.0000000000000000       0.40353485902180525       0.11948632148013781       0.88051367851986218        0.0000000000000000     
 chl2c           1          16           4  0.19932811269496697        0.0000000000000000        1.0000000000000000     
 limit           1          16           5  0.97457311571115635       0.65480618466938567        1.0000000000000000        1.0000000000000000        0.0000000000000000        0.0000000000000000        0.0000000000000000     
 chl2c           1          16           5  0.49428758311099086        0.0000000000000000        1.0000000000000000     
 limit           1          16           6  0.97955451959603279       0.90462216627731507        1.0000000000000000       0.97668063367019842        1.9979513402370426E-002   5.1582425089452310E-003  0.97486224408868438     
 chl2c           1          16           6  0.49827245564550465        0.0000000000000000        1.0000000000000000     
 consum   0.0000000000000000        0.0000000000000000     
 reminPOC   1.9678163786888857E-007  0.40541510362517735        3.8580246913580245E-007   1.2581129829532163     
 reminPOSi   1.3317191189217569E-008  0.40541510362517735        7.7160493827160495E-008  0.42571378389451137     
 reminDOC   5.7452813798993923E-007   1.2802072287549771E-009
 limit           1          17           1  0.97515718361003390       0.88361580907509785       0.87860332287166598       0.96817659261292188        1.6157809550494815E-002   5.0217936729950643E-003  0.97882039677651012     
 chl2c           1          17           1  0.49924805766743019        0.0000000000000000        1.0000000000000000     
 limit           1          17           2  0.97515718361003390       0.88361580907509785        1.0000000000000000       0.96817659261292188        1.6157809550494815E-002   5.0217936729950643E-003  0.97882039677651012     
 chl2c           1          17           2  0.49920854440922174        0.0000000000000000        1.0000000000000000     
 limit           1          17           3  0.99134110405694820       0.95679227726577654        1.0000000000000000        1.0000000000000000        4.3664227308420012E-002   4.8813935600456517E-003  0.95145437913153430     
 chl2c           1          17           3  0.19963075148603554        0.0000000000000000        1.0000000000000000     
 limit           1          17           4  0.99205694721324000       0.96024979450549230        1.0000000000000000       0.40328649245724074       0.11935015059608134       0.88064984940391866        0.0000000000000000     
 chl2c           1          17           4  0.19963075148603554        0.0000000000000000        1.0000000000000000     
 limit           1          17           5  0.97515718361003390       0.65494135126454056        1.0000000000000000        1.0000000000000000        0.0000000000000000        0.0000000000000000        0.0000000000000000     
 chl2c           1          17           5  0.49684914232533239        0.0000000000000000        1.0000000000000000     
 limit           1          17           6  0.98002650732579266       0.90467375364898417        1.0000000000000000       0.97733094933734743        1.9930135600275838E-002   5.0025387119117118E-003  0.97506732568781240     
 chl2c           1          17           6  0.49905055391140452        0.0000000000000000        1.0000000000000000     
 consum   0.0000000000000000        0.0000000000000000     
 reminPOC   1.9549544834847327E-007  0.40258138394535542        3.8580246913580245E-007   1.2586876152922739     
 reminPOSi   1.3275606370099412E-008  0.40258138394535542        7.7160493827160495E-008  0.42737162078970325     
 reminDOC   5.6978363983646523E-007   1.2857215706225708E-009
 limit           1          18           1  0.97571505268188763       0.88367689237450620       0.88902972443290718       0.96894208339066423        1.6115846144477509E-002   4.8744384030788811E-003  0.97900971545244364     
 chl2c           1          18           1  0.49958704504648477        0.0000000000000000        1.0000000000000000     
 limit           1          18           2  0.97571505268188763       0.88367689237450620        1.0000000000000000       0.96894208339066423        1.6115846144477509E-002   4.8744384030788811E-003  0.97900971545244364     
 chl2c           1          18           2  0.49956532947259669        0.0000000000000000        1.0000000000000000     
 limit           1          18           3  0.99153870119082010       0.95681683143139151        1.0000000000000000        1.0000000000000000        4.3577754091698652E-002   4.7383843989614325E-003  0.95168386150933992     
 chl2c           1          18           3  0.19979718314421727        0.0000000000000000        1.0000000000000000     
 limit           1          18           4  0.99223833661215344       0.96027246541019162        1.0000000000000000       0.40304021144435620       0.11921421981802156       0.88078578018197851        0.0000000000000000     
 chl2c           1          18           4  0.19979718314421727        0.0000000000000000        1.0000000000000000     
 limit           1          18           5  0.97571505268188763       0.65507560282408284        1.0000000000000000        1.0000000000000000        0.0000000000000000        0.0000000000000000        0.0000000000000000     
 chl2c           1          18           5  0.49826584125576878        0.0000000000000000        1.0000000000000000     
 limit           1          18           6  0.98047722020976824       0.90472497653796569        1.0000000000000000       0.97794494620989991        1.9881741659934823E-002   4.8557810991162204E-003  0.97526247724094894     
 chl2c           1          18           6  0.49947848605467582        0.0000000000000000        1.0000000000000000     
 consum   0.0000000000000000        0.0000000000000000     
 reminPOC   1.9421676294147337E-007  0.39976589954766251        3.8580246913580245E-007   1.2592616081409400     
 reminPOSi   1.3233834266980743E-008  0.39976589954766251        7.7160493827160495E-008  0.42902731897376833     
 reminDOC   5.6508147458780394E-007   1.2912341957477571E-009
 limit           1          19           1  0.97624842009597035       0.88373807279682937       0.89780676961629635       0.96966654641751981        1.6074602718209690E-002   4.7352750322425851E-003  0.97919012224954771     
 chl2c           1          19           1  0.49977327993658544        0.0000000000000000        1.0000000000000000     
 limit           1          19           2  0.97624842009597035       0.88373807279682937        1.0000000000000000       0.96966654641751981        1.6074602718209690E-002   4.7352750322425851E-003  0.97919012224954771     
 chl2c           1          19           2  0.49976135299786084        0.0000000000000000        1.0000000000000000     
 limit           1          19           3  0.99172748222026941       0.95684142249893300        1.0000000000000000        1.0000000000000000        4.3491880489580990E-002   4.6033256474198123E-003  0.95190479386299920     
 chl2c           1          19           3  0.19988864025882830        0.0000000000000000        1.0000000000000000     
 limit           1          19           4  0.99241162745634814       0.96029517029318301        1.0000000000000000       0.40279336451476921       0.11907807617137524       0.88092192382862478        0.0000000000000000     
 chl2c           1          19           4  0.19988864025882830        0.0000000000000000        1.0000000000000000     
 limit           1          19           5  0.97624842009597035       0.65521010441128802        1.0000000000000000        1.0000000000000000        0.0000000000000000        0.0000000000000000        0.0000000000000000     
 chl2c           1          19           5  0.49904677708952638        0.0000000000000000        1.0000000000000000     
 limit           1          19           6  0.98090804324951952       0.90477627958733686        1.0000000000000000       0.97852557762649350        1.9834051793402117E-002   4.7171821713509702E-003  0.97544876603524688     
 chl2c           1          19           6  0.49971365093589143        0.0000000000000000        1.0000000000000000     
 consum   0.0000000000000000        0.0000000000000000     
 reminPOC   1.9300958403973625E-007  0.39710006515720164        3.8580246913580245E-007   1.2598357082438356     
 reminPOSi   1.3196319604698143E-008  0.39710006515720164        7.7160493827160495E-008  0.43068313778589745     
 reminDOC   5.6059946122470623E-007   1.2967471674544095E-009
 limit           1          20           1  0.97686275149881130       0.88505261038419991       0.90630585243862538       0.97051792369272949        1.5834101195334602E-002   4.5264621238707064E-003  0.97963943668079467     
 chl2c           1          20           1  0.49988738833361823        0.0000000000000000        1.0000000000000000     
 limit           1          20           2  0.97686275149881130       0.88505261038419991        1.0000000000000000       0.97051792369272949        1.5834101195334602E-002   4.5264621238707064E-003  0.97963943668079467     
 chl2c           1          20           2  0.49988146280911794        0.0000000000000000        1.0000000000000000     
 limit           1          20           3  0.99194475326689957       0.95736927551978512        1.0000000000000000        1.0000000000000000        4.2898010815435483E-002   4.4019874169457509E-003  0.95270000176761882     
 chl2c           1          20           3  0.19994468483017946        0.0000000000000000        1.0000000000000000     
 limit           1          20           4  0.99261106385267794       0.96078251340431420        1.0000000000000000       0.39925037055741819       0.11849622232688867       0.88150377767311139        0.0000000000000000     
 chl2c           1          20           4  0.19994468483017946        0.0000000000000000        1.0000000000000000     
 limit           1          20           5  0.97686275149881130       0.65810890741382366        1.0000000000000000        1.0000000000000000        0.0000000000000000        0.0000000000000000        0.0000000000000000     
 chl2c           1          20           5  0.49952618826692435        0.0000000000000000        1.0000000000000000     
 limit           1          20           6  0.98140414983779023       0.90587827908223095        1.0000000000000000       0.97917371781963392        1.9542582648360073E-002   4.5094057506976631E-003  0.97594801160094224     
 chl2c           1          20           6  0.49985776211602650        0.0000000000000000        1.0000000000000000     
 consum   0.0000000000000000        0.0000000000000000     
 reminPOC   1.9193693899362875E-007  0.39471034731723609        3.8580246913580245E-007   1.2604193157156716     
 reminPOSi   1.3209231246452844E-008  0.39471034731723609        7.7160493827160495E-008  0.43371459126314454     
 reminDOC   5.4755516773204055E-007   1.3046609584262466E-009
 limit           1          21           1  0.97766151686232428       0.89418031676989351       0.91366291371946451       0.97180130244339835        1.4235405655913372E-002   3.9332216084545894E-003  0.98183137273563204     
 chl2c           1          21           1  0.49994939250546960        0.0000000000000000        1.0000000000000000     
 limit           1          21           2  0.97766151686232428       0.89418031676989351        1.0000000000000000       0.97180130244339835        1.4235405655913372E-002   3.9332216084545894E-003  0.98183137273563204     
 chl2c           1          21           2  0.49994672923695826        0.0000000000000000        1.0000000000000000     
 limit           1          21           3  0.99222698697076550       0.96100747848307566        1.0000000000000000        1.0000000000000000        3.8802724234329719E-002   3.8351974870275969E-003  0.95736207827864261     
 chl2c           1          21           3  0.19997514075208747        0.0000000000000000        1.0000000000000000     
 limit           1          21           4  0.99287011966880923       0.96414033370869823        1.0000000000000000       0.37186930120497558       0.11489943019176731       0.88510056980823271        0.0000000000000000     
 chl2c           1          21           4  0.19997514075208747        0.0000000000000000        1.0000000000000000     
 limit           1          21           5  0.97766151686232428       0.67871583331571361        1.0000000000000000        1.0000000000000000        0.0000000000000000        0.0000000000000000        0.0000000000000000     
 chl2c           1          21           5  0.49978698504547930        0.0000000000000000        1.0000000000000000     
 limit           1          21           6  0.98204901392993327       0.91351386636285892        1.0000000000000000       0.97993025731248384        1.7585825323532006E-002   3.9198533630239070E-003  0.97849432131344405     
 chl2c           1          21           6  0.49993607644670940        0.0000000000000000        1.0000000000000000     
 consum   0.0000000000000000        0.0000000000000000     
 reminPOC   1.9040966062819458E-007  0.39154540142661953        3.8580246913580245E-007   1.2604970931851851     
 reminPOSi   1.3435680089884479E-008  0.39154540142661953        7.7160493827160495E-008  0.44471576815986763     
 reminDOC   4.7207957364202224E-007   1.3238633983789223E-009
 limit           1          22           1  0.97840698248955582       0.90196560550083715       0.91994865481470645       0.97302852745737423        1.2636621289924738E-002   3.3795430288496298E-003  0.98398383568122560     
 chl2c           1          22           1  0.49997725903693013        0.0000000000000000        1.0000000000000000     
 limit           1          22           2  0.97840698248955582       0.90196560550083715        1.0000000000000000       0.97302852745737423        1.2636621289924738E-002   3.3795430288496298E-003  0.98398383568122560     
 chl2c           1          22           2  0.49997606220145024        0.0000000000000000        1.0000000000000000     
 limit           1          22           3  0.99249011674109477       0.96407374475362662        1.0000000000000000        1.0000000000000000        3.4655994905705645E-002   3.3041752137094064E-003  0.96203982988058501     
 chl2c           1          22           3  0.19998882911649643        0.0000000000000000        1.0000000000000000     
 limit           1          22           4  0.99311162944110853       0.96696870847328220        1.0000000000000000       0.34251836717914880       0.11123736166263770       0.88876263833736224        0.0000000000000000     
 chl2c           1          22           4  0.19998882911649643        0.0000000000000000        1.0000000000000000     
 limit           1          22           5  0.97840698248955582       0.69698121216513309        1.0000000000000000        1.0000000000000000        0.0000000000000000        0.0000000000000000        0.0000000000000000     
 chl2c           1          22           5  0.49990426255897069        0.0000000000000000        1.0000000000000000     
 limit           1          22           6  0.98265066107580767       0.92000401276651023        1.0000000000000000       0.98063842115594724        1.5625168179660785E-002   3.3693138437032328E-003  0.98100551797663604     
 chl2c           1          22           6  0.49997127491684046        0.0000000000000000        1.0000000000000000     
 consum   0.0000000000000000        0.0000000000000000     
 reminPOC   1.8882366828171957E-007  0.38826017116609851        3.8580246913580245E-007   1.2605746984457944     
 reminPOSi   1.3652546481632528E-008  0.38826017116609851        7.7160493827160495E-008  0.45571762323842258     
 reminDOC   3.9762465560149761E-007   1.3430668961322611E-009
 limit           1          23           1  0.97910429481594419       0.90868379584719572       0.92538128092485483       0.97420497028644992        1.1037529247646094E-002   2.8615023111520704E-003  0.98610096844120187     
 chl2c           1          23           1  0.49998978120856308        0.0000000000000000        1.0000000000000000     
 limit           1          23           2  0.97910429481594419       0.90868379584719572        1.0000000000000000       0.97420497028644992        1.1037529247646094E-002   2.8615023111520704E-003  0.98610096844120187     
 chl2c           1          23           2  0.49998924338900763        0.0000000000000000        1.0000000000000000     
 limit           1          23           3  0.99273601305164150       0.96669290174681011        1.0000000000000000        1.0000000000000000        3.0456680447648914E-002   2.8053141870494984E-003  0.96673800536530163     
 chl2c           1          23           3  0.19999498026620582        0.0000000000000000        1.0000000000000000     
 limit           1          23           4  0.99333731215754406       0.96938351441010007        1.0000000000000000       0.31096584281860051       0.10750129936864464       0.89249870063135528        0.0000000000000000     
 chl2c           1          23           4  0.19999498026620582        0.0000000000000000        1.0000000000000000     
 limit           1          23           5  0.97910429481594419       0.71328135763157308        1.0000000000000000        1.0000000000000000        0.0000000000000000        0.0000000000000000        0.0000000000000000     
 chl2c           1          23           5  0.49995697633334707        0.0000000000000000        1.0000000000000000     
 limit           1          23           6  0.98321328178980971       0.92558803300382975        1.0000000000000000       0.98130259405561682        1.3660398499618011E-002   2.8539131996859319E-003  0.98348568830069605     
 chl2c           1          23           6  0.49998709212235887        0.0000000000000000        1.0000000000000000     
 consum   0.0000000000000000        0.0000000000000000     
 reminPOC   1.8718123033219359E-007  0.38485929689002951        3.8580246913580245E-007   1.2606522771871103     
 reminPOSi   1.3859672072332332E-008  0.38485929689002951        7.7160493827160495E-008  0.46671952973180325     
 reminDOC   3.2426613299681905E-007   1.3622708247808120E-009
 limit           1          24           1  0.98014927394510598       0.91771040423718941       0.93382848224169612       0.97596121817812165        8.6545582971405150E-003   2.1372130640966267E-003  0.98920822863876279     
 chl2c           1          24           1  0.49999748001712807        0.0000000000000000        1.0000000000000000     
 limit           1          24           2  0.98014927394510598       0.91771040423718941        1.0000000000000000       0.97596121817812165        8.6545582971405150E-003   2.1372130640966267E-003  0.98920822863876279     
 chl2c           1          24           2  0.49999734738715451        0.0000000000000000        1.0000000000000000     
 limit           1          24           3  0.99310408115531346       0.97017352737767037        1.0000000000000000        1.0000000000000000        2.4102735776661843E-002   2.1039087835332303E-003  0.97379335543980494     
 chl2c           1          24           3  0.19999876211510056        0.0000000000000000        1.0000000000000000     
 limit           1          24           4  0.99367510639628798       0.97259094046588146        1.0000000000000000       0.25908232593867336       0.10185547688775781       0.89814452311224224        0.0000000000000000     
 chl2c           1          24           4  0.19999876211510056        0.0000000000000000        1.0000000000000000     
 limit           1          24           5  0.98014927394510598       0.73601201152282925        1.0000000000000000        1.0000000000000000        0.0000000000000000        0.0000000000000000        0.0000000000000000     
 chl2c           1          24           5  0.49998938971757384        0.0000000000000000        1.0000000000000000     
 limit           1          24           6  0.98405611963581241       0.93306674122826883        1.0000000000000000       0.98228967741254813        1.0725851980266293E-002   2.1327476217463258E-003  0.98714140039798737     
 chl2c           1          24           6  0.49999681686796466        0.0000000000000000        1.0000000000000000     
 consum   0.0000000000000000        0.0000000000000000     
 reminPOC   1.8548226790744840E-007  0.38148099077647574        3.8580246913580245E-007   1.2602725955952228     
 reminPOSi   1.4317078789360494E-008  0.38148099077647574        7.7160493827160495E-008  0.48639210234942593     
 reminDOC   2.1775968031673113E-007   1.4070504813963833E-009
 limit           1          25           1  0.98124289799370634       0.92575013896459224       0.94438857230408790       0.97763185414237797        6.7392606880722697E-003   1.5685370406321375E-003  0.99169220227129562     
 chl2c           1          25           1  0.49999965896080967        0.0000000000000000        1.0000000000000000     
 limit           1          25           2  0.98124289799370634       0.92575013896459224        1.0000000000000000       0.97763185414237797        6.7392606880722697E-003   1.5685370406321375E-003  0.99169220227129562     
 chl2c           1          25           2  0.49999964101139144        0.0000000000000000        1.0000000000000000     
 limit           1          25           3  0.99348873512448266       0.97323706727885329        1.0000000000000000        1.0000000000000000        1.8913261244346283E-002   1.5493121079941875E-003  0.97953742664765964     
 chl2c           1          25           3  0.19999983247200276        0.0000000000000000        1.0000000000000000     
 limit           1          25           4  0.99402810014562903       0.97541247548358123        1.0000000000000000       0.21165250656749271        9.7642980994219988E-002  0.90235701900578003        0.0000000000000000     
 chl2c           1          25           4  0.19999983247200276        0.0000000000000000        1.0000000000000000     
 limit           1          25           5  0.98124289799370634       0.75710525830878139        1.0000000000000000        1.0000000000000000        0.0000000000000000        0.0000000000000000        0.0000000000000000     
 chl2c           1          25           5  0.49999856404866166        0.0000000000000000        1.0000000000000000     
 limit           1          25           6  0.98493781380237577       0.93970472805913341        1.0000000000000000       0.98328782006888726        8.3618467270441636E-003   1.5659746859522342E-003  0.99007217858700369     
 chl2c           1          25           6  0.49999956921373162        0.0000000000000000        1.0000000000000000     
 consum   0.0000000000000000        0.0000000000000000     
 reminPOC   1.8150454481736157E-007  0.37400738979738546        3.8580246913580245E-007   1.2578889963149333     
 reminPOSi   1.4890844133132580E-008  0.37400738979738546        7.7160493827160495E-008  0.51599338737650613     
 reminDOC   1.2976047151446122E-007   1.5109273821431927E-009
 limit           1          26           1  0.98254400963351962       0.93418428818792054       0.95495834497484899       0.97972738729495612        4.2045721557900668E-003   8.9907754642799191E-004  0.99489635029778201     
 chl2c           1          26           1  0.49999998301698345        0.0000000000000000        1.0000000000000000     
 limit           1          26           2  0.98254400963351962       0.93418428818792054        1.0000000000000000       0.97972738729495612        4.2045721557900668E-003   8.9907754642799191E-004  0.99489635029778201     
 chl2c           1          26           2  0.49999998212314056        0.0000000000000000        1.0000000000000000     
 limit           1          26           3  0.99394563896111210       0.97641453402661471        1.0000000000000000       0.99998243817707566        1.1920817095105143E-002   8.9211075146821209E-004  0.98718707215342671     
 chl2c           1          26           3  0.19999999165746568        0.0000000000000000        1.0000000000000000     
 limit           1          26           4  0.99444736757756935       0.97833741267303875        1.0000000000000000       0.14039725661386862        9.2524756363548399E-002  0.90747524363645160        0.0000000000000000     
 chl2c           1          26           4  0.19999999165746568        0.0000000000000000        1.0000000000000000     
 limit           1          26           5  0.98254400963351962       0.78014658062344477        1.0000000000000000        1.0000000000000000        0.0000000000000000        0.0000000000000000        0.0000000000000000     
 chl2c           1          26           5  0.49999992849256980        0.0000000000000000        1.0000000000000000     
 limit           1          26           6  0.98598628304518321       0.94664511257138273        1.0000000000000000       0.98450884192359922        5.2248091291575384E-003   8.9815640125184251E-004  0.99387703446959064     
 chl2c           1          26           6  0.49999997854776884        0.0000000000000000        1.0000000000000000     
 consum   0.0000000000000000        0.0000000000000000     
 reminPOC   1.7690153912785774E-007  0.36665920891370285        3.8580246913580245E-007   1.2505584975702246     
 reminPOSi   1.5769216910974640E-008  0.36665920891370285        7.7160493827160495E-008  0.55738147630796797     
 reminDOC   1.9451100077193767E-008   1.6754642435243800E-009
 limit           1          27           1  0.98311689842943439       0.93500384186133056       0.96468471828225011       0.98086819292540606        3.6465087635682088E-003   7.1346963920270769E-004  0.99564002159722909     
 chl2c           1          27           1  0.49999999988551141        0.0000000000000000        1.0000000000000000     
 limit           1          27           2  0.98311689842943439       0.93500384186133056        1.0000000000000000       0.98086819292540606        3.6465087635682088E-003   7.1346963920270769E-004  0.99564002159722909     
 chl2c           1          27           2  0.49999999987948573        0.0000000000000000        1.0000000000000000     
 limit           1          27           3  0.99414656647312816       0.97672132993000094        1.0000000000000000       0.99946912466076898        1.0366644695177058E-002   7.0865747865859379E-004  0.98892469782616443     
 chl2c           1          27           3  0.19999999994376000        0.0000000000000000        1.0000000000000000     
 limit           1          27           4  0.99463173403470229       0.97861974377494443        1.0000000000000000       0.12035497618843771        9.3826005443995761E-002  0.90617399455600423        0.0000000000000000     
 chl2c           1          27           4  0.19999999994376000        0.0000000000000000        1.0000000000000000     
 limit           1          27           5  0.98311689842943439       0.78243753967440344        1.0000000000000000        1.0000000000000000        0.0000000000000000        0.0000000000000000        0.0000000000000000     
 chl2c           1          27           5  0.49999999951794299        0.0000000000000000        1.0000000000000000     
 limit           1          27           6  0.98644775796779982       0.94731825123430502        1.0000000000000000       0.98532472426562157        4.5334661704216723E-003   7.1283450600287260E-004  0.99475369932357538     
 chl2c           1          27           6  0.49999999985538285        0.0000000000000000        1.0000000000000000     
 consum   0.0000000000000000        0.0000000000000000     
 reminPOC   1.6493788535546058E-007  0.35696183887938859        3.8580246913580245E-007   1.1976602322070773     
 reminPOSi   1.6352815437972760E-008  0.35696183887938859        7.7160493827160495E-008  0.59371189016015624     
 reminDOC   6.1964451385282061E-009   2.0441659364972037E-009
 limit           1          28           1  0.98384267074265852       0.93667725314522332       0.97225678841564089       0.98191074504249254        3.0986530256770610E-003   5.5417958185516325E-004  0.99634716739246776     
 chl2c           1          28           1  0.49999999999971556        0.0000000000000000        1.0000000000000000     
 limit           1          28           2  0.98384267074265852       0.93667725314522332        1.0000000000000000       0.98191074504249254        3.0986530256770610E-003   5.5417958185516325E-004  0.99634716739246776     
 chl2c           1          28           2  0.49999999999970063        0.0000000000000000        1.0000000000000000     
 limit           1          28           3  0.99440089478347760       0.97734669244481875        1.0000000000000000       0.99893179217046391        8.8322352109224660E-003   5.5099227130774031E-004  0.99061677251776981     
 chl2c           1          28           3  0.19999999999986026        0.0000000000000000        1.0000000000000000     
 limit           1          28           4  0.99486509097686293       0.97919519326728854        1.0000000000000000       0.10067293342019498        9.5528751736276868E-002  0.90447124826372305        0.0000000000000000     
 chl2c           1          28           4  0.19999999999986026        0.0000000000000000        1.0000000000000000     
 limit           1          28           5  0.98384267074265852       0.78714474993132055        1.0000000000000000        1.0000000000000000        0.0000000000000000        0.0000000000000000        0.0000000000000000     
 chl2c           1          28           5  0.49999999999880224        0.0000000000000000        1.0000000000000000     
 limit           1          28           6  0.98703223169367527       0.94869200994297687        1.0000000000000000       0.98606251871389106        3.8540762473102575E-003   5.5375964047745441E-004  0.99559216411221230     
 chl2c           1          28           6  0.49999999999964062        0.0000000000000000        1.0000000000000000     
 consum   0.0000000000000000        0.0000000000000000     
 reminPOC   1.4487487531843386E-007  0.34932887582050998        3.8580246913580245E-007   1.0749631731512677     
 reminPOSi   1.5795557111785693E-008  0.34932887582050998        7.7160493827160495E-008  0.58601058869787115     
 reminDOC   1.3360317394304232E-009   2.4748102614912457E-009
 limit           1          29           1  0.98456928982560943       0.93883890526726588       0.97794770048151125       0.98279838516496865        2.5256915421718621E-003   4.1374817998629943E-004  0.99706056027784185     
 chl2c           1          29           1  0.49999999999999978        0.0000000000000000        1.0000000000000000     
 limit           1          29           2  0.98456928982560943       0.93883890526726588        1.0000000000000000       0.98279838516496865        2.5256915421718621E-003   4.1374817998629943E-004  0.99706056027784185     
 chl2c           1          29           2  0.49999999999999978        0.0000000000000000        1.0000000000000000     
 limit           1          29           3  0.99465527431162737       0.97815239199666737        1.0000000000000000       0.99829192880553341        7.2179300104513299E-003   4.1180185905366918E-004  0.99237026813049500     
 chl2c           1          29           3  0.19999999999999990        0.0000000000000000        1.0000000000000000     
 limit           1          29           4  0.99509848501457054       0.97993649770249747        1.0000000000000000        8.0400538092822077E-002   9.7704696150336362E-002  0.90229530384966372        0.0000000000000000     
 chl2c           1          29           4  0.19999999999999990        0.0000000000000000        1.0000000000000000     
 limit           1          29           5  0.98456928982560943       0.79328446612012737        1.0000000000000000        1.0000000000000000        0.0000000000000000        0.0000000000000000        0.0000000000000000     
 chl2c           1          29           5  0.49999999999999889        0.0000000000000000        1.0000000000000000     
 limit           1          29           6  0.98761721683284664       0.95046520374049381        1.0000000000000000       0.98667004354777033        3.1427757369832839E-003   4.1349221603781806E-004  0.99644373204697889     
 chl2c           1          29           6  0.49999999999999967        0.0000000000000000        1.0000000000000000     
 consum   0.0000000000000000        0.0000000000000000     
 reminPOC   1.1974566730860648E-007  0.34353926695096121        3.8580246913580245E-007  0.90347974605247550     
 reminPOSi   1.4402600458290141E-008  0.34353926695096121        7.7160493827160495E-008  0.54333731219751602     
 reminDOC   4.1035050407989150E-010   2.8935784924206993E-009
 limit           1          30           1  0.98523084593331145       0.94179781895162762       0.98307760258760890       0.98344741227024557        1.7617888238541401E-003   2.6871151694348670E-004  0.99796949965920234     
 chl2c           1          30           1  0.50000000000000000        0.0000000000000000        1.0000000000000000     
 limit           1          30           2  0.98523084593331145       0.94179781895162762        1.0000000000000000       0.98344741227024557        1.7617888238541401E-003   2.6871151694348670E-004  0.99796949965920234     
 chl2c           1          30           2  0.50000000000000000        0.0000000000000000        1.0000000000000000     
 limit           1          30           3  0.99488666282616822       0.97925139140332829        1.0000000000000000       0.99724134482426918        5.0507011267445943E-003   2.6782618856784529E-004  0.99468147268468765     
 chl2c           1          30           3  0.19999999999999998        0.0000000000000000        1.0000000000000000     
 limit           1          30           4  0.99531077612542462       0.98094749937987125        1.0000000000000000        5.5155233220822900E-002   9.9576066969950236E-002  0.90042393303004975        0.0000000000000000     
 chl2c           1          30           4  0.19999999999999998        0.0000000000000000        1.0000000000000000     
 limit           1          30           5  0.98523084593331145       0.80179854645614090        1.0000000000000000        1.0000000000000000        0.0000000000000000        0.0000000000000000        0.0000000000000000     
 chl2c           1          30           5  0.50000000000000000        0.0000000000000000        1.0000000000000000     
 limit           1          30           6  0.98814967288526956       0.95288987272998571        1.0000000000000000       0.98704862075883437        2.1932512359570900E-003   2.6859537340383628E-004  0.99753815339063912     
 chl2c           1          30           6  0.50000000000000000        0.0000000000000000        1.0000000000000000     
 consum   0.0000000000000000        0.0000000000000000     
 reminPOC   8.4558152714131510E-008  0.33918484901009172        3.8580246913580245E-007  0.64618078453294303     
 reminPOSi   1.1427735466556484E-008  0.33918484901009172        7.7160493827160495E-008  0.43664524544304018     
 reminDOC   8.3496140633427594E-011   3.1902481516991349E-009
 limit           1          31           1  0.98456009607650663       0.94353399213886913       0.98577931567949795       0.98278116898824408        1.0454794704411060E-003   1.6350498587548726E-004  0.99879101554368344     
 chl2c           1          31           1  0.50000000000000000        0.0000000000000000        1.0000000000000000     
 limit           1          31           2  0.98456009607650663       0.94353399213886913        1.0000000000000000       0.98278116898824408        1.0454794704411060E-003   1.6350498587548726E-004  0.99879101554368344     
 chl2c           1          31           2  0.50000000000000000        0.0000000000000000        1.0000000000000000     
 limit           1          31           3  0.99465205723719485       0.97989417441245041        1.0000000000000000       0.99579973340303407        3.0035350150745951E-003   1.6318449896883709E-004  0.99683328048595654     
 chl2c           1          31           3  0.19999999999999998        0.0000000000000000        1.0000000000000000     
 limit           1          31           4  0.99509553340020707       0.98153872828564503        1.0000000000000000        3.2550480881326761E-002  0.10021155184094693       0.89978844815905301        0.0000000000000000     
 chl2c           1          31           4  0.19999999999999998        0.0000000000000000        1.0000000000000000     
 limit           1          31           5  0.98456009607650663       0.80685444400495265        1.0000000000000000        1.0000000000000000        0.0000000000000000        0.0000000000000000        0.0000000000000000     
 chl2c           1          31           5  0.50000000000000000        0.0000000000000000        1.0000000000000000     
 limit           1          31           6  0.98760981621174837       0.95431122112163291        1.0000000000000000       0.98637615947913959        1.3017519565145298E-003   1.6346304019292156E-004  0.99853478500329251     
 chl2c           1          31           6  0.50000000000000000        0.0000000000000000        1.0000000000000000     
 consum   0.0000000000000000        0.0000000000000000     
 reminPOC   5.0840509800303626E-008  0.33808768132074951        3.8580246913580245E-007  0.38977640619022264     
 reminPOSi   7.9394011148115420E-009  0.33808768132074951        7.7160493827160495E-008  0.30434305694308839     
 reminDOC   1.1553901159894064E-011   3.0161314923511528E-009
 limit           1          32           1  0.98367396041821686       0.94681478561250165       0.98609104917445545       0.98205117580055035        5.7896807626877267E-004   9.4363904204778235E-005  0.99932666801952641     
 chl2c           1          32           1  0.50000000000000000        0.0000000000000000        1.0000000000000000     
 limit           1          32           2  0.98367396041821686       0.94681478561250165        1.0000000000000000       0.98205117580055035        5.7896807626877267E-004   9.4363904204778235E-005  0.99932666801952641     
 chl2c           1          32           2  0.50000000000000000        0.0000000000000000        1.0000000000000000     
 limit           1          32           3  0.99434179645002496       0.98110467228795473        1.0000000000000000       0.99475421747908954        1.6652779172509600E-003   9.4261336383512920E-005  0.99824046074636552     
 chl2c           1          32           3  0.20000000000000001        0.0000000000000000        1.0000000000000000     
 limit           1          32           4  0.99481086664812679       0.98265196653249776        1.0000000000000000        1.8103722678222099E-002   9.9806261260683635E-002  0.90019373873931641        0.0000000000000000     
 chl2c           1          32           4  0.20000000000000001        0.0000000000000000        1.0000000000000000     
 limit           1          32           5  0.98367396041821686       0.81653242877609722        1.0000000000000000        1.0000000000000000        0.0000000000000000        0.0000000000000000        0.0000000000000000     
 chl2c           1          32           5  0.50000000000000000        0.0000000000000000        1.0000000000000000     
 limit           1          32           6  0.98689638229832111       0.95699437582164248        1.0000000000000000       0.98569937746697200        7.2092907430292496E-004   9.4350500450413060E-005  0.99918472042524664     
 chl2c           1          32           6  0.50000000000000000        0.0000000000000000        1.0000000000000000     
 consum   0.0000000000000000        0.0000000000000000     
 reminPOC   2.8275464646199022E-008  0.33593688042892467        3.8580246913580245E-007  0.21816599674727913     
 reminPOSi   5.3733622942487878E-009  0.33593688042892467        7.7160493827160495E-008  0.20729720191647136     
 reminDOC   8.2514114178226103E-013   2.5070424688453503E-009
 limit           1          33           1  0.98262718686052875       0.95353121350180570       0.98659009294877842       0.98137095325707790        3.3299861041099577E-004   5.7151777939843920E-005  0.99960984961164923     
 chl2c           1          33           1  0.50000000000000000        0.0000000000000000        1.0000000000000000     
 limit           1          33           2  0.98262718686052875       0.95353121350180570        1.0000000000000000       0.98137095325707790        3.3299861041099577E-004   5.7151777939843920E-005  0.99960984961164923     
 chl2c           1          33           2  0.50000000000000000        0.0000000000000000        1.0000000000000000     
 limit           1          33           3  0.99397482094860390       0.98356600581068176        1.0000000000000000       0.99409838865361255        9.5821090881063669E-004   5.7116034042732446E-005  0.99898467305714655     
 chl2c           1          33           3  0.20000000000000001        0.0000000000000000        1.0000000000000000     
 limit           1          33           4  0.99447414468057760       0.98491484621565506        1.0000000000000000        1.0571503311621913E-002   9.8288947558108131E-002  0.90171105244189187        0.0000000000000000     
 chl2c           1          33           4  0.20000000000000001        0.0000000000000000        1.0000000000000000     
 limit           1          33           5  0.98262718686052875       0.83686667671819215        1.0000000000000000        1.0000000000000000        0.0000000000000000        0.0000000000000000        0.0000000000000000     
 chl2c           1          33           5  0.50000000000000000        0.0000000000000000        1.0000000000000000     
 limit           1          33           6  0.98605329077376347       0.96247623402752780        1.0000000000000000       0.98510440030246205        4.1463684844381853E-004   5.7147110615179831E-005  0.99952821604094100     
 chl2c           1          33           6  0.50000000000000000        0.0000000000000000        1.0000000000000000     
 consum   0.0000000000000000        0.0000000000000000     
 reminPOC   1.6187259523523570E-008  0.33202349835689526        3.8580246913580245E-007  0.12636869647061158     
 reminPOSi   4.0648053955015705E-009  0.33202349835689526        7.7160493827160495E-008  0.15866310121542734     
 reminDOC   2.6944055782067802E-014   1.9785768765547404E-009
 limit           1          34           1  0.98238261535735516       0.95866837719924958       0.98775941172415060       0.98134809542636714        1.8983614329950226E-004   3.3630100308235474E-005  0.99977653375639230     
 chl2c           1          34           1  0.50000000000000000        0.0000000000000000        1.0000000000000000     
 limit           1          34           2  0.98238261535735516       0.95866837719924958        1.0000000000000000       0.98134809542636714        1.8983614329950226E-004   3.3630100308235474E-005  0.99977653375639230     
 chl2c           1          34           2  0.50000000000000000        0.0000000000000000        1.0000000000000000     
 limit           1          34           3  0.99388900601317487       0.98543352095397996        1.0000000000000000       0.99384774968794765        5.4652984327133560E-004   3.3618102385686764E-005  0.99941985205434303     
 chl2c           1          34           3  0.19999999999999998        0.0000000000000000        1.0000000000000000     
 limit           1          34           4  0.99439540137303473       0.98663116613795476        1.0000000000000000        6.2056512369451002E-003   9.5480237926094474E-002  0.90451976207390550        0.0000000000000000     
 chl2c           1          34           4  0.19999999999999998        0.0000000000000000        1.0000000000000000     
 limit           1          34           5  0.98238261535735516       0.85291170284610640        1.0000000000000000        1.0000000000000000        0.0000000000000000        0.0000000000000000        0.0000000000000000     
 chl2c           1          34           5  0.50000000000000000        0.0000000000000000        1.0000000000000000     
 limit           1          34           6  0.98585625713421343       0.96665909501768665        1.0000000000000000       0.98505874242912517        2.3639029527130700E-004   3.3628534390167050E-005  0.99972998117033851     
 chl2c           1          34           6  0.50000000000000000        0.0000000000000000        1.0000000000000000     
 consum   0.0000000000000000        0.0000000000000000     
 reminPOC   9.1550643058841565E-009  0.32656291845259267        3.8580246913580245E-007   7.2665711077348247E-002
 reminPOSi   3.5228533229575909E-009  0.32656291845259267        7.7160493827160495E-008  0.13980821607630969     
 reminDOC   8.5813152535263663E-016   1.5446110767086154E-009
 limit           1          35           1  0.98297773852343318       0.96241834854944874       0.98939038055510187       0.98196785912206896        1.1957081277226772E-004   2.1678315994011117E-005  0.99985875087123377     
 chl2c           1          35           1  0.50000000000000000        0.0000000000000000        1.0000000000000000     
 limit           1          35           2  0.98297773852343318       0.96241834854944874        1.0000000000000000       0.98196785912206896        1.1957081277226772E-004   2.1678315994011117E-005  0.99985875087123377     
 chl2c           1          35           2  0.50000000000000000        0.0000000000000000        1.0000000000000000     
 limit           1          35           3  0.99409777341901784       0.98678858650395151        1.0000000000000000       0.99394642333342909        3.4446773762721776E-004   2.1673440024384375E-005  0.99963385882234845     
 chl2c           1          35           3  0.19999999999999998        0.0000000000000000        1.0000000000000000     
 limit           1          35           4  0.99458696321996909       0.98787618990626413        1.0000000000000000        4.1220977115479793E-003   9.0608364038523084E-002  0.90939163596147699        0.0000000000000000     
 chl2c           1          35           4  0.19999999999999998        0.0000000000000000        1.0000000000000000     
 limit           1          35           5  0.98297773852343318       0.86490470685639420        1.0000000000000000        1.0000000000000000        0.0000000000000000        0.0000000000000000        0.0000000000000000     
 chl2c           1          35           5  0.50000000000000000        0.0000000000000000        1.0000000000000000     
 limit           1          35           6  0.98633567126341548       0.96970698654494802        1.0000000000000000       0.98554484685172261        1.4891667405477282E-004   2.1677679749080794E-005  0.99982940564619616     
 chl2c           1          35           6  0.50000000000000000        0.0000000000000000        1.0000000000000000     
 consum   0.0000000000000000        0.0000000000000000     
 reminPOC   5.7090403061607846E-009  0.31938536875494972        3.8580246913580245E-007   4.6332217819666240E-002
 reminPOSi   4.3540336929637441E-009  0.31938536875494972        7.7160493827160495E-008  0.17667771344937547     
 reminDOC   1.3665466026596448E-015   1.6377111877786456E-009
 graz           1           7           1   2.3035203580345658E-009   3.3822910838466833E-008  0.17200000000000001       0.10238921372452738       0.25858395926129385     
 graz           1           7           2   2.4106608398036158E-009   3.3822910838466833E-008  0.18000000000000002       0.10238921372452738       0.25858395926129385     
 graz           1           7           3   1.3392560221131197E-008   3.3822910838466833E-008   1.0000000000000000       0.10238921372452738       0.25858395926129385     
 graz           1           7           4   1.3392560221131197E-008   3.3822910838466833E-008   1.0000000000000000       0.10238921372452738       0.25858395926129385     
 graz           1           7           5   1.8079956298527119E-010   3.3822910838466833E-008  0.13500000000000001        1.0238921372452739E-002  0.25858395926129385     
 graz           1           7           6   2.1428096353809920E-009   3.3822910838466833E-008  0.16000000000000003       0.10238921372452738       0.25858395926129385     
 graz           1           8           1   1.1423782667973377E-008   4.0215700031731864E-008  0.85999999999999999       0.10238921372452738       0.30998334455100662     
 graz           1           8           2   1.1955121396716325E-008   4.0215700031731864E-008  0.90000000000000002       0.10238921372452738       0.30998334455100662     
 graz           1           8           3   2.6566936437147390E-009   4.0215700031731864E-008  0.20000000000000001       0.10238921372452738       0.30998334455100662     
 graz           1           8           4   2.6566936437147390E-009   4.0215700031731864E-008  0.20000000000000001       0.10238921372452738       0.30998334455100662     
 graz           1           8           5   8.9663410475372478E-010   4.0215700031731864E-008  0.67500000000000004        1.0238921372452739E-002  0.30998334455100662     
 graz           1           8           6   1.0626774574858956E-008   4.0215700031731864E-008  0.80000000000000004       0.10238921372452738       0.30998334455100662     
 prey           1           1           1   1.3727303026007943E-008
 prey           1           1           2   1.4365782236519941E-008
 prey           1           1           3   1.6049253864845936E-008
 prey           1           1           4   1.6049253864845936E-008
 prey           1           1           5   1.0774336677389960E-009
 prey           1           1           6   1.2769584210239948E-008
 pred           1           1           7   2.4243212512291696E-008
 pred           1           1           8   3.2703898754128441E-008
 mort           1           1   7.6737247363150014E-008   1.6534391534391535E-006  0.45327711305703122       0.10238921372452738        0.0000000000000000        0.0000000000000000       0.45327711305703122        1.0483551087126945E-002
 mort           1           2   7.6737247363150014E-008   1.6534391534391535E-006  0.45327711305703122       0.10238921372452738        0.0000000000000000        0.0000000000000000       0.45327711305703122        1.0483551087126945E-002
 mort           1           3   7.6737247363150014E-008   1.6534391534391535E-006  0.45327711305703122       0.10238921372452738        0.0000000000000000        0.0000000000000000       0.45327711305703122        1.0483551087126945E-002
 mort           1           4   7.6737247363150014E-008   1.6534391534391535E-006  0.45327711305703122       0.10238921372452738        0.0000000000000000        0.0000000000000000       0.45327711305703122        1.0483551087126945E-002
 mort           1           5   7.6737247363150021E-009   1.6534391534391535E-006  0.45327711305703122        1.0238921372452737E-002   0.0000000000000000        0.0000000000000000       0.45327711305703122        1.0483551087126944E-004
 mort           1           6   7.6737247363150014E-008   1.6534391534391535E-006  0.45327711305703122       0.10238921372452738        0.0000000000000000        0.0000000000000000       0.45327711305703122        1.0483551087126945E-002
 mort           1           7   7.3621276949475603E-008   2.3148148148148148E-007  0.45327711305703122       0.31207964909054287        4.0876239360676385E-008   9.2592592592592583E-007  0.45327711305703122        9.7393707376476374E-002
 mort           1           8   7.3621276949475603E-008   2.3148148148148148E-007  0.45327711305703122       0.31207964909054287        4.0876239360676385E-008   9.2592592592592583E-007  0.45327711305703122        9.7393707376476374E-002
 graz           1           7           1   2.3065421666518187E-009   3.3867280476041673E-008  0.17200000000000001       0.10249384889704989       0.25884821538949948     
 graz           1           7           2   2.4138231976588800E-009   3.3867280476041673E-008  0.18000000000000002       0.10249384889704989       0.25884821538949948     
 graz           1           7           3   1.3410128875882668E-008   3.3867280476041673E-008   1.0000000000000000       0.10249384889704989       0.25884821538949948     
 graz           1           7           4   1.3410128875882668E-008   3.3867280476041673E-008   1.0000000000000000       0.10249384889704989       0.25884821538949948     
 graz           1           7           5   1.8103673982441601E-010   3.3867280476041673E-008  0.13500000000000001        1.0249384889704991E-002  0.25884821538949948     
 graz           1           7           6   2.1456206201412272E-009   3.3867280476041673E-008  0.16000000000000003       0.10249384889704989       0.25884821538949948     
 graz           1           8           1   1.1438677354838101E-008   4.0268134525316695E-008  0.85999999999999999       0.10249384889704989       0.31030012753581859     
 graz           1           8           2   1.1970708859714292E-008   4.0268134525316695E-008  0.90000000000000002       0.10249384889704989       0.31030012753581859     
 graz           1           8           3   2.6601575243809538E-009   4.0268134525316695E-008  0.20000000000000001       0.10249384889704989       0.31030012753581859     
 graz           1           8           4   2.6601575243809538E-009   4.0268134525316695E-008  0.20000000000000001       0.10249384889704989       0.31030012753581859     
 graz           1           8           5   8.9780316447857220E-010   4.0268134525316695E-008  0.67500000000000004        1.0249384889704991E-002  0.31030012753581859     
 graz           1           8           6   1.0640630097523815E-008   4.0268134525316695E-008  0.80000000000000004       0.10249384889704989       0.31030012753581859     
 prey           1           2           1   1.3745219521489920E-008
 prey           1           2           2   1.4384532057373172E-008
 prey           1           2           3   1.6070286400263622E-008
 prey           1           2           4   1.6070286400263622E-008
 prey           1           2           5   1.0788399043029881E-009
 prey           1           2           6   1.2786250717665043E-008
 pred           1           2           7   2.4275015291122804E-008
 pred           1           2           8   3.2746539125129541E-008
 mort           1           1   7.6799197938307681E-008   1.6534391534391535E-006  0.45317992653142930       0.10249384889704989        0.0000000000000000        0.0000000000000000       0.45317992653142930        1.0504989061731295E-002
 mort           1           2   7.6799197938307681E-008   1.6534391534391535E-006  0.45317992653142930       0.10249384889704989        0.0000000000000000        0.0000000000000000       0.45317992653142930        1.0504989061731295E-002
 mort           1           3   7.6799197938307681E-008   1.6534391534391535E-006  0.45317992653142930       0.10249384889704989        0.0000000000000000        0.0000000000000000       0.45317992653142930        1.0504989061731295E-002
 mort           1           4   7.6799197938307681E-008   1.6534391534391535E-006  0.45317992653142930       0.10249384889704989        0.0000000000000000        0.0000000000000000       0.45317992653142930        1.0504989061731295E-002
 mort           1           5   7.6799197938307687E-009   1.6534391534391535E-006  0.45317992653142930        1.0249384889704989E-002   0.0000000000000000        0.0000000000000000       0.45317992653142930        1.0504989061731295E-004
 mort           1           6   7.6799197938307681E-008   1.6534391534391535E-006  0.45317992653142930       0.10249384889704989        0.0000000000000000        0.0000000000000000       0.45317992653142930        1.0504989061731295E-002
 mort           1           7   7.3668046585087905E-008   2.3148148148148148E-007  0.45317992653142930       0.31225015426586650        4.0912143351376595E-008   9.2592592592592583E-007  0.45317992653142930        9.7500158839057424E-002
 mort           1           8   7.3668046585087905E-008   2.3148148148148148E-007  0.45317992653142930       0.31225015426586650        4.0912143351376595E-008   9.2592592592592583E-007  0.45317992653142930        9.7500158839057424E-002
 graz           1           7           1   2.3125877924345241E-009   3.3956049242984830E-008  0.17200000000000001       0.10264421290744036       0.25922795969774060     
 graz           1           7           2   2.4201500153384562E-009   3.3956049242984830E-008  0.18000000000000002       0.10264421290744036       0.25922795969774060     
 graz           1           7           3   1.3445277862991421E-008   3.3956049242984830E-008   1.0000000000000000       0.10264421290744036       0.25922795969774060     
 graz           1           7           4   1.3445277862991421E-008   3.3956049242984830E-008   1.0000000000000000       0.10264421290744036       0.25922795969774060     
 graz           1           7           5   1.8151125115038423E-010   3.3956049242984830E-008  0.13500000000000001        1.0264421290744037E-002  0.25922795969774060     
 graz           1           7           6   2.1512444580786275E-009   3.3956049242984830E-008  0.16000000000000003       0.10264421290744036       0.25922795969774060     
 graz           1           8           1   1.1468527511562034E-008   4.0373217489830299E-008  0.85999999999999999       0.10264421290744036       0.31075535457727566     
 graz           1           8           2   1.2001947395820733E-008   4.0373217489830299E-008  0.90000000000000002       0.10264421290744036       0.31075535457727566     
 graz           1           8           3   2.6670994212934970E-009   4.0373217489830299E-008  0.20000000000000001       0.10264421290744036       0.31075535457727566     
 graz           1           8           4   2.6670994212934970E-009   4.0373217489830299E-008  0.20000000000000001       0.10264421290744036       0.31075535457727566     
 graz           1           8           5   9.0014605468655525E-010   4.0373217489830299E-008  0.67500000000000004        1.0264421290744037E-002  0.31075535457727566     
 graz           1           8           6   1.0668397685173988E-008   4.0373217489830299E-008  0.80000000000000004       0.10264421290744036       0.31075535457727566     
 prey           1           3           1   1.3781115303996558E-008
 prey           1           3           2   1.4422097411159189E-008
 prey           1           3           3   1.6112377284284920E-008
 prey           1           3           4   1.6112377284284920E-008
 prey           1           3           5   1.0816573058369395E-009
 prey           1           3           6   1.2819642143252616E-008
 pred           1           3           7   2.4338641987587075E-008
 pred           1           3           8   3.2831993876122944E-008
 mort           1           1   7.6838150897021501E-008   1.6534391534391535E-006  0.45274557957227035       0.10264421290744036        0.0000000000000000        0.0000000000000000       0.45274557957227035        1.0535834443387945E-002
 mort           1           2   7.6838150897021501E-008   1.6534391534391535E-006  0.45274557957227035       0.10264421290744036        0.0000000000000000        0.0000000000000000       0.45274557957227035        1.0535834443387945E-002
 mort           1           3   7.6838150897021501E-008   1.6534391534391535E-006  0.45274557957227035       0.10264421290744036        0.0000000000000000        0.0000000000000000       0.45274557957227035        1.0535834443387945E-002
 mort           1           4   7.6838150897021501E-008   1.6534391534391535E-006  0.45274557957227035       0.10264421290744036        0.0000000000000000        0.0000000000000000       0.45274557957227035        1.0535834443387945E-002
 mort           1           5   7.6838150897021491E-009   1.6534391534391535E-006  0.45274557957227035        1.0264421290744036E-002   0.0000000000000000        0.0000000000000000       0.45274557957227035        1.0535834443387945E-004
 mort           1           6   7.6838150897021501E-008   1.6534391534391535E-006  0.45274557957227035       0.10264421290744036        0.0000000000000000        0.0000000000000000       0.45274557957227035        1.0535834443387945E-002
 mort           1           7   7.3846446113503237E-008   2.3148148148148148E-007  0.45274557957227035       0.31292886179911572        4.1050807479213532E-008   9.2592592592592583E-007  0.45274557957227035        9.7924472546890060E-002
 mort           1           8   7.3846446113503237E-008   2.3148148148148148E-007  0.45274557957227035       0.31292886179911572        4.1050807479213532E-008   9.2592592592592583E-007  0.45274557957227035        9.7924472546890060E-002
 graz           1           7           1   2.5319101154652390E-009   3.7176389515159658E-008  0.17200000000000001       0.10574284921655187       0.26705356569640176     
 graz           1           7           2   2.6496733766496689E-009   3.7176389515159658E-008  0.18000000000000002       0.10574284921655187       0.26705356569640176     
 graz           1           7           3   1.4720407648053716E-008   3.7176389515159658E-008   1.0000000000000000       0.10574284921655187       0.26705356569640176     
 graz           1           7           4   1.4720407648053716E-008   3.7176389515159658E-008   1.0000000000000000       0.10574284921655187       0.26705356569640176     
 graz           1           7           5   1.9872550324872516E-010   3.7176389515159658E-008  0.13500000000000001        1.0574284921655188E-002  0.26705356569640176     
 graz           1           7           6   2.3552652236885949E-009   3.7176389515159658E-008  0.16000000000000003       0.10574284921655187       0.26705356569640176     
 graz           1           8           1   1.2553222937010932E-008   4.4191723769535578E-008  0.85999999999999999       0.10574284921655187       0.32013647600311079     
 graz           1           8           2   1.3137093771290512E-008   4.4191723769535578E-008  0.90000000000000002       0.10574284921655187       0.32013647600311079     
 graz           1           8           3   2.9193541713978914E-009   4.4191723769535578E-008  0.20000000000000001       0.10574284921655187       0.32013647600311079     
 graz           1           8           4   2.9193541713978914E-009   4.4191723769535578E-008  0.20000000000000001       0.10574284921655187       0.32013647600311079     
 graz           1           8           5   9.8528203284678848E-010   4.4191723769535578E-008  0.67500000000000004        1.0574284921655188E-002  0.32013647600311079     
 graz           1           8           6   1.1677416685591566E-008   4.4191723769535578E-008  0.80000000000000004       0.10574284921655187       0.32013647600311079     
 prey           1           4           1   1.5085133052476171E-008
 prey           1           4           2   1.5786767147940180E-008
 prey           1           4           3   1.7639761819451607E-008
 prey           1           4           4   1.7639761819451607E-008
 prey           1           4           5   1.1840075360955137E-009
 prey           1           4           6   1.4032681909280161E-008
 pred           1           4           7   2.6646881924506838E-008
 pred           1           4           8   3.5937249849908045E-008
 mort           1           1   7.8719109495907936E-008   1.6534391534391535E-006  0.45023675620490899       0.10574284921655187        0.0000000000000000        0.0000000000000000       0.45023675620490899        1.1181550160434425E-002
 mort           1           2   7.8719109495907936E-008   1.6534391534391535E-006  0.45023675620490899       0.10574284921655187        0.0000000000000000        0.0000000000000000       0.45023675620490899        1.1181550160434425E-002
 mort           1           3   7.8719109495907936E-008   1.6534391534391535E-006  0.45023675620490899       0.10574284921655187        0.0000000000000000        0.0000000000000000       0.45023675620490899        1.1181550160434425E-002
 mort           1           4   7.8719109495907936E-008   1.6534391534391535E-006  0.45023675620490899       0.10574284921655187        0.0000000000000000        0.0000000000000000       0.45023675620490899        1.1181550160434425E-002
 mort           1           5   7.8719109495907936E-009   1.6534391534391535E-006  0.45023675620490899        1.0574284921655186E-002   0.0000000000000000        0.0000000000000000       0.45023675620490899        1.1181550160434423E-004
 mort           1           6   7.8719109495907936E-008   1.6534391534391535E-006  0.45023675620490899       0.10574284921655187        0.0000000000000000        0.0000000000000000       0.45023675620490899        1.1181550160434425E-002
 mort           1           7   8.1637180188837839E-008   2.3148148148148148E-007  0.45023675620490899       0.33483823613479896        4.6739846556730143E-008   9.2592592592592583E-007  0.45023675620490899       0.11211664437786339     
 mort           1           8   8.1637180188837839E-008   2.3148148148148148E-007  0.45023675620490899       0.33483823613479896        4.6739846556730143E-008   9.2592592592592583E-007  0.45023675620490899       0.11211664437786339     
 graz           1           7           1   2.8642092455575998E-009   4.2055584009626267E-008  0.17200000000000001       0.11021849839231571       0.27835681768979331     
 graz           1           7           2   2.9974282802346975E-009   4.2055584009626267E-008  0.18000000000000002       0.11021849839231571       0.27835681768979331     
 graz           1           7           3   1.6652379334637208E-008   4.2055584009626267E-008   1.0000000000000000       0.11021849839231571       0.27835681768979331     
 graz           1           7           4   1.6652379334637208E-008   4.2055584009626267E-008   1.0000000000000000       0.11021849839231571       0.27835681768979331     
 graz           1           7           5   2.2480712101760231E-010   4.2055584009626267E-008  0.13500000000000001        1.1021849839231570E-002  0.27835681768979331     
 graz           1           7           6   2.6643806935419537E-009   4.2055584009626267E-008  0.16000000000000003       0.11021849839231571       0.27835681768979331     
 graz           1           8           1   1.4195940832685676E-008   4.9974663803437072E-008  0.85999999999999999       0.11021849839231571       0.33368650388273580     
 graz           1           8           2   1.4856217150485010E-008   4.9974663803437072E-008  0.90000000000000002       0.11021849839231571       0.33368650388273580     
 graz           1           8           3   3.3013815889966695E-009   4.9974663803437072E-008  0.20000000000000001       0.11021849839231571       0.33368650388273580     
 graz           1           8           4   3.3013815889966695E-009   4.9974663803437072E-008  0.20000000000000001       0.11021849839231571       0.33368650388273580     
 graz           1           8           5   1.1142162862863757E-009   4.9974663803437072E-008  0.67500000000000004        1.1021849839231570E-002  0.33368650388273580     
 graz           1           8           6   1.3205526355986678E-008   4.9974663803437072E-008  0.80000000000000004       0.11021849839231571       0.33368650388273580     
 prey           1           5           1   1.7060150078243276E-008
 prey           1           5           2   1.7853645430719706E-008
 prey           1           5           3   1.9953760923633876E-008
 prey           1           5           4   1.9953760923633876E-008
 prey           1           5           5   1.3390234073039780E-009
 prey           1           5           6   1.5869907049528633E-008
 pred           1           5           7   3.0144137071560277E-008
 pred           1           5           8   4.0640007360548995E-008
 mort           1           1   8.1407525329779276E-008   1.6534391534391535E-006  0.44670606148344261       0.11021849839231571        0.0000000000000000        0.0000000000000000       0.44670606148344261        1.2148117387856899E-002
 mort           1           2   8.1407525329779276E-008   1.6534391534391535E-006  0.44670606148344261       0.11021849839231571        0.0000000000000000        0.0000000000000000       0.44670606148344261        1.2148117387856899E-002
 mort           1           3   8.1407525329779276E-008   1.6534391534391535E-006  0.44670606148344261       0.11021849839231571        0.0000000000000000        0.0000000000000000       0.44670606148344261        1.2148117387856899E-002
 mort           1           4   8.1407525329779276E-008   1.6534391534391535E-006  0.44670606148344261       0.11021849839231571        0.0000000000000000        0.0000000000000000       0.44670606148344261        1.2148117387856899E-002
 mort           1           5   8.1407525329779246E-009   1.6534391534391535E-006  0.44670606148344261        1.1021849839231568E-002   0.0000000000000000        0.0000000000000000       0.44670606148344261        1.2148117387856894E-004
 mort           1           6   8.1407525329779276E-008   1.6534391534391535E-006  0.44670606148344261       0.11021849839231571        0.0000000000000000        0.0000000000000000       0.44670606148344261        1.2148117387856899E-002
 mort           1           7   9.3632700565334855E-008   2.3148148148148148E-007  0.44670606148344261       0.36693548279006416        5.5690037524669320E-008   9.2592592592592583E-007  0.44670606148344261       0.13464164853037747     
 mort           1           8   9.3632700565334855E-008   2.3148148148148148E-007  0.44670606148344261       0.36693548279006416        5.5690037524669320E-008   9.2592592592592583E-007  0.44670606148344261       0.13464164853037747     
 graz           1           7           1   5.6734646094278818E-009   8.3304272506454165E-008  0.17200000000000001       0.20272095238170459       0.51197176523999499     
 graz           1           7           2   5.9373466842849938E-009   8.3304272506454165E-008  0.18000000000000002       0.20272095238170459       0.51197176523999499     
 graz           1           7           3   3.2985259357138850E-008   8.3304272506454165E-008   1.0000000000000000       0.20272095238170459       0.51197176523999499     
 graz           1           7           4   3.2985259357138850E-008   8.3304272506454165E-008   1.0000000000000000       0.20272095238170459       0.51197176523999499     
 graz           1           7           5   4.4530100132137461E-010   8.3304272506454165E-008  0.13500000000000001        2.0272095238170466E-002  0.51197176523999499     
 graz           1           7           6   5.2776414971422168E-009   8.3304272506454165E-008  0.16000000000000003       0.20272095238170459       0.51197176523999499     
 graz           1           8           1   2.7930833712465184E-008   9.8326277981963193E-008  0.85999999999999999       0.20272095238170459       0.61373768333561074     
 graz           1           8           2   2.9229942257231004E-008   9.8326277981963193E-008  0.90000000000000002       0.20272095238170459       0.61373768333561074     
 graz           1           8           3   6.4955427238291127E-009   9.8326277981963193E-008  0.20000000000000001       0.20272095238170459       0.61373768333561074     
 graz           1           8           4   6.4955427238291127E-009   9.8326277981963193E-008  0.20000000000000001       0.20272095238170459       0.61373768333561074     
 graz           1           8           5   2.1922456692923260E-009   9.8326277981963193E-008  0.67500000000000004        2.0272095238170466E-002  0.61373768333561074     
 graz           1           8           6   2.5982170895316451E-008   9.8326277981963193E-008  0.80000000000000004       0.20272095238170459       0.61373768333561074     
 prey           1           6           1   3.3604298321893064E-008
 prey           1           6           2   3.5167288941515997E-008
 prey           1           6           3   3.9480802080967963E-008
 prey           1           6           4   3.9480802080967963E-008
 prey           1           6           5   2.6375466706137007E-009
 prey           1           6           6   3.1259812392458670E-008
 pred           1           6           7   5.9709916488292746E-008
 pred           1           6           8   7.9960130930336379E-008
 mort           1           1   1.4863982950622170E-007   1.6534391534391535E-006  0.44345376158303823       0.20272095238170459        0.0000000000000000        0.0000000000000000       0.44345376158303823        4.1095784534545342E-002
 mort           1           2   1.4863982950622170E-007   1.6534391534391535E-006  0.44345376158303823       0.20272095238170459        0.0000000000000000        0.0000000000000000       0.44345376158303823        4.1095784534545342E-002
 mort           1           3   1.4863982950622170E-007   1.6534391534391535E-006  0.44345376158303823       0.20272095238170459        0.0000000000000000        0.0000000000000000       0.44345376158303823        4.1095784534545342E-002
 mort           1           4   1.4863982950622170E-007   1.6534391534391535E-006  0.44345376158303823       0.20272095238170459        0.0000000000000000        0.0000000000000000       0.44345376158303823        4.1095784534545342E-002
 mort           1           5   1.4863982950622176E-008   1.6534391534391535E-006  0.44345376158303823        2.0272095238170466E-002   0.0000000000000000        0.0000000000000000       0.44345376158303823        4.1095784534545367E-004
 mort           1           6   1.4863982950622170E-007   1.6534391534391535E-006  0.44345376158303823       0.20272095238170459        0.0000000000000000        0.0000000000000000       0.44345376158303823        4.1095784534545342E-002
 mort           1           7   1.1238077005009307E-007   2.3148148148148148E-007  0.44345376158303823       0.41288506962515165        6.9997566988345813E-008   9.2592592592592583E-007  0.44345376158303823       0.17047408071936632     
 mort           1           8   1.1238077005009307E-007   2.3148148148148148E-007  0.44345376158303823       0.41288506962515165        6.9997566988345813E-008   9.2592592592592583E-007  0.44345376158303823       0.17047408071936632     
 graz           1           7           1   8.7995410610294306E-009   1.2920488924203386E-007  0.17200000000000001       0.29518504971790210       0.74548984306256172     
 graz           1           7           2   9.2088220406121952E-009   1.2920488924203386E-007  0.18000000000000002       0.29518504971790210       0.74548984306256172     
 graz           1           7           3   5.1160122447845525E-008   1.2920488924203386E-007   1.0000000000000000       0.29518504971790210       0.74548984306256172     
 graz           1           7           4   5.1160122447845525E-008   1.2920488924203386E-007   1.0000000000000000       0.29518504971790210       0.74548984306256172     
 graz           1           7           5   6.9066165304591453E-010   1.2920488924203386E-007  0.13500000000000001        2.9518504971790208E-002  0.74548984306256172     
 graz           1           7           6   8.1856195916552853E-009   1.2920488924203386E-007  0.16000000000000003       0.29518504971790210       0.74548984306256172     
 graz           1           8           1   4.3051953046428505E-008   1.5155789284658406E-007  0.85999999999999999       0.29518504971790210       0.89367273802094860     
 graz           1           8           2   4.5054369467192625E-008   1.5155789284658406E-007  0.90000000000000002       0.29518504971790210       0.89367273802094860     
 graz           1           8           3   1.0012082103820584E-008   1.5155789284658406E-007  0.20000000000000001       0.29518504971790210       0.89367273802094860     
 graz           1           8           4   1.0012082103820584E-008   1.5155789284658406E-007  0.20000000000000001       0.29518504971790210       0.89367273802094860     
 graz           1           8           5   3.3790777100394464E-009   1.5155789284658406E-007  0.67500000000000004        2.9518504971790208E-002  0.89367273802094860     
 graz           1           8           6   4.0048328415282335E-008   1.5155789284658406E-007  0.80000000000000004       0.29518504971790210       0.89367273802094860     
 prey           1           7           1   5.1851494107457932E-008
 prey           1           7           2   5.4263191507804820E-008
 prey           1           7           3   6.1172204551666112E-008
 prey           1           7           4   6.1172204551666112E-008
 prey           1           7           5   4.0697393630853610E-009
 prey           1           7           6   4.8233948006937620E-008
 pred           1           7           7   9.2610053655089975E-008
 pred           1           7           8   1.2324873069803138E-007
 mort           1           1   2.1491922884654638E-007   1.6534391534391535E-006  0.44034462358649784       0.29518504971790210        0.0000000000000000        0.0000000000000000       0.44034462358649784        8.7134213576960343E-002
 mort           1           2   2.1491922884654638E-007   1.6534391534391535E-006  0.44034462358649784       0.29518504971790210        0.0000000000000000        0.0000000000000000       0.44034462358649784        8.7134213576960343E-002
 mort           1           3   2.1491922884654638E-007   1.6534391534391535E-006  0.44034462358649784       0.29518504971790210        0.0000000000000000        0.0000000000000000       0.44034462358649784        8.7134213576960343E-002
 mort           1           4   2.1491922884654638E-007   1.6534391534391535E-006  0.44034462358649784       0.29518504971790210        0.0000000000000000        0.0000000000000000       0.44034462358649784        8.7134213576960343E-002
 mort           1           5   2.1491922884654640E-008   1.6534391534391535E-006  0.44034462358649784        2.9518504971790208E-002   0.0000000000000000        0.0000000000000000       0.44034462358649784        8.7134213576960324E-004
 mort           1           6   2.1491922884654638E-007   1.6534391534391535E-006  0.44034462358649784       0.29518504971790210        0.0000000000000000        0.0000000000000000       0.44034462358649784        8.7134213576960343E-002
 mort           1           7   1.3258072576930716E-007   2.3148148148148148E-007  0.44034462358649784       0.45877712576020535        8.5816827446859723E-008   9.2592592592592583E-007  0.44034462358649784       0.21047645112079527     
 mort           1           8   1.3258072576930716E-007   2.3148148148148148E-007  0.44034462358649784       0.45877712576020535        8.5816827446859723E-008   9.2592592592592583E-007  0.44034462358649784       0.21047645112079527     
 graz           1           7           1   4.2851636772091004E-009   6.2919656202276649E-008  0.17200000000000001       0.19303817517640623       0.48751791140801393     
 graz           1           7           2   4.4844736156839427E-009   6.2919656202276649E-008  0.18000000000000002       0.19303817517640623       0.48751791140801393     
 graz           1           7           3   2.4913742309355237E-008   6.2919656202276649E-008   1.0000000000000000       0.19303817517640623       0.48751791140801393     
 graz           1           7           4   2.4913742309355237E-008   6.2919656202276649E-008   1.0000000000000000       0.19303817517640623       0.48751791140801393     
 graz           1           7           5   3.3633552117629581E-010   6.2919656202276649E-008  0.13500000000000001        1.9303817517640629E-002  0.48751791140801393     
 graz           1           7           6   3.9861987694968387E-009   6.2919656202276649E-008  0.16000000000000003       0.19303817517640623       0.48751791140801393     
 graz           1           8           1   2.1110487512569608E-008   7.4316280167795928E-008  0.85999999999999999       0.19303817517640623       0.58442307534656990     
 graz           1           8           2   2.2092370652689131E-008   7.4316280167795928E-008  0.90000000000000002       0.19303817517640623       0.58442307534656990     
 graz           1           8           3   4.9094157005975839E-009   7.4316280167795928E-008  0.20000000000000001       0.19303817517640623       0.58442307534656990     
 graz           1           8           4   4.9094157005975839E-009   7.4316280167795928E-008  0.20000000000000001       0.19303817517640623       0.58442307534656990     
 graz           1           8           5   1.6569277989516852E-009   7.4316280167795928E-008  0.67500000000000004        1.9303817517640629E-002  0.58442307534656990     
 graz           1           8           6   1.9637662802390336E-008   7.4316280167795928E-008  0.80000000000000004       0.19303817517640623       0.58442307534656990     
 prey           1           8           1   2.5395651189778707E-008
 prey           1           8           2   2.6576844268373076E-008
 prey           1           8           3   2.9823158009952822E-008
 prey           1           8           4   2.9823158009952822E-008
 prey           1           8           5   1.9932633201279811E-009
 prey           1           8           6   2.3623861571887174E-008
 pred           1           8           7   4.5098856328394852E-008
 pred           1           8           8   6.0434907274356266E-008
 mort           1           1   1.3955976948573655E-007   1.6534391534391535E-006  0.43724899755108038       0.19303817517640623        0.0000000000000000        0.0000000000000000       0.43724899755108038        3.7263737075436898E-002
 mort           1           2   1.3955976948573655E-007   1.6534391534391535E-006  0.43724899755108038       0.19303817517640623        0.0000000000000000        0.0000000000000000       0.43724899755108038        3.7263737075436898E-002
 mort           1           3   1.3955976948573655E-007   1.6534391534391535E-006  0.43724899755108038       0.19303817517640623        0.0000000000000000        0.0000000000000000       0.43724899755108038        3.7263737075436898E-002
 mort           1           4   1.3955976948573655E-007   1.6534391534391535E-006  0.43724899755108038       0.19303817517640623        0.0000000000000000        0.0000000000000000       0.43724899755108038        3.7263737075436898E-002
 mort           1           5   1.3955976948573662E-008   1.6534391534391535E-006  0.43724899755108038        1.9303817517640629E-002   0.0000000000000000        0.0000000000000000       0.43724899755108038        3.7263737075436920E-004
 mort           1           6   1.3955976948573655E-007   1.6534391534391535E-006  0.43724899755108038       0.19303817517640623        0.0000000000000000        0.0000000000000000       0.43724899755108038        3.7263737075436898E-002
 mort           1           7   7.7820035985395686E-008   2.3148148148148148E-007  0.43724899755108038       0.33089428022163175        4.4328556281160778E-008   9.2592592592592583E-007  0.43724899755108038       0.10949102468339175     
 mort           1           8   7.7820035985395686E-008   2.3148148148148148E-007  0.43724899755108038       0.33089428022163175        4.4328556281160778E-008   9.2592592592592583E-007  0.43724899755108038       0.10949102468339175     
 graz           1           7           1   1.2746047283174366E-009   1.8715199077707474E-008  0.17200000000000001        9.0845550825743512E-002  0.22943043861041523     
 graz           1           7           2   1.3338886691694105E-009   1.8715199077707474E-008  0.18000000000000002        9.0845550825743512E-002  0.22943043861041523     
 graz           1           7           3   7.4104926064967226E-009   1.8715199077707474E-008   1.0000000000000000        9.0845550825743512E-002  0.22943043861041523     
 graz           1           7           4   7.4104926064967226E-009   1.8715199077707474E-008   1.0000000000000000        9.0845550825743512E-002  0.22943043861041523     
 graz           1           7           5   1.0004165018770577E-010   1.8715199077707474E-008  0.13500000000000001        9.0845550825743512E-003  0.22943043861041523     
 graz           1           7           6   1.1856788170394760E-009   1.8715199077707474E-008  0.16000000000000003        9.0845550825743512E-002  0.22943043861041523     
 graz           1           8           1   6.3267070865554028E-009   2.2272215935519165E-008  0.85999999999999999        9.0845550825743512E-002  0.27503490512493850     
 graz           1           8           2   6.6209725324416999E-009   2.2272215935519165E-008  0.90000000000000002        9.0845550825743512E-002  0.27503490512493850     
 graz           1           8           3   1.4713272294314893E-009   2.2272215935519165E-008  0.20000000000000001        9.0845550825743512E-002  0.27503490512493850     
 graz           1           8           4   1.4713272294314893E-009   2.2272215935519165E-008  0.20000000000000001        9.0845550825743512E-002  0.27503490512493850     
 graz           1           8           5   4.9657293993312745E-010   2.2272215935519165E-008  0.67500000000000004        9.0845550825743512E-003  0.27503490512493850     
 graz           1           8           6   5.8853089177259572E-009   2.2272215935519165E-008  0.80000000000000004        9.0845550825743512E-002  0.27503490512493850     
 prey           1           9           1   7.6013118148728396E-009
 prey           1           9           2   7.9548612016111108E-009
 prey           1           9           3   8.8818198359282112E-009
 prey           1           9           4   8.8818198359282112E-009
 prey           1           9           5   5.9661459012083325E-010
 prey           1           9           6   7.0709877347654336E-009
 pred           1           9           7   1.3414473716280368E-008
 pred           1           9           8   1.8112038194301631E-008
 mort           1           1   6.4979046286892200E-008   1.6534391534391535E-006  0.43259495745361137        9.0845550825743512E-002   0.0000000000000000        0.0000000000000000       0.43259495745361137        8.2529141048327485E-003
 mort           1           2   6.4979046286892200E-008   1.6534391534391535E-006  0.43259495745361137        9.0845550825743512E-002   0.0000000000000000        0.0000000000000000       0.43259495745361137        8.2529141048327485E-003
 mort           1           3   6.4979046286892200E-008   1.6534391534391535E-006  0.43259495745361137        9.0845550825743512E-002   0.0000000000000000        0.0000000000000000       0.43259495745361137        8.2529141048327485E-003
 mort           1           4   6.4979046286892200E-008   1.6534391534391535E-006  0.43259495745361137        9.0845550825743512E-002   0.0000000000000000        0.0000000000000000       0.43259495745361137        8.2529141048327485E-003
 mort           1           5   6.4979046286892200E-009   1.6534391534391535E-006  0.43259495745361137        9.0845550825743495E-003   0.0000000000000000        0.0000000000000000       0.43259495745361137        8.2529141048327446E-005
 mort           1           6   6.4979046286892200E-008   1.6534391534391535E-006  0.43259495745361137        9.0845550825743512E-002   0.0000000000000000        0.0000000000000000       0.43259495745361137        8.2529141048327485E-003
 mort           1           7   3.6829104048287051E-008   2.3148148148148148E-007  0.43259495745361137       0.20298038113375080        1.6503111145399841E-008   9.2592592592592583E-007  0.43259495745361137        4.1201035125202741E-002
 mort           1           8   3.6829104048287051E-008   2.3148148148148148E-007  0.43259495745361137       0.20298038113375080        1.6503111145399841E-008   9.2592592592592583E-007  0.43259495745361137        4.1201035125202741E-002
 graz           1           7           1   6.3300869532050545E-010   9.2945550001856759E-009  0.17200000000000001        5.6128400600352096E-002  0.14175227571618923     
 graz           1           7           2   6.6245096021913354E-010   9.2945550001856759E-009  0.18000000000000002        5.6128400600352096E-002  0.14175227571618923     
 graz           1           7           3   3.6802831123285192E-009   9.2945550001856759E-009   1.0000000000000000        5.6128400600352096E-002  0.14175227571618923     
 graz           1           7           4   3.6802831123285192E-009   9.2945550001856759E-009   1.0000000000000000        5.6128400600352096E-002  0.14175227571618923     
 graz           1           7           5   4.9683822016435025E-011   9.2945550001856759E-009  0.13500000000000001        5.6128400600352112E-003  0.14175227571618923     
 graz           1           7           6   5.8884529797256320E-010   9.2945550001856759E-009  0.16000000000000003        5.6128400600352096E-002  0.14175227571618923     
 graz           1           8           1   3.1505895918145617E-009   1.1091174406068122E-008  0.85999999999999999        5.6128400600352096E-002  0.16992873281756599     
 graz           1           8           2   3.2971286425966336E-009   1.1091174406068122E-008  0.90000000000000002        5.6128400600352096E-002  0.16992873281756599     
 graz           1           8           3   7.3269525391036317E-010   1.1091174406068122E-008  0.20000000000000001        5.6128400600352096E-002  0.16992873281756599     
 graz           1           8           4   7.3269525391036317E-010   1.1091174406068122E-008  0.20000000000000001        5.6128400600352096E-002  0.16992873281756599     
 graz           1           8           5   2.4728464819474757E-010   1.1091174406068122E-008  0.67500000000000004        5.6128400600352112E-003  0.16992873281756599     
 graz           1           8           6   2.9307810156414527E-009   1.1091174406068122E-008  0.80000000000000004        5.6128400600352096E-002  0.16992873281756599     
 prey           1          10           1   3.7835982871350671E-009
 prey           1          10           2   3.9595796028157670E-009
 prey           1          10           3   4.4129783662388823E-009
 prey           1          10           4   4.4129783662388823E-009
 prey           1          10           5   2.9696847021118259E-010
 prey           1          10           6   3.5196263136140159E-009
 pred           1          10           7   6.6620484899370866E-009
 pred           1          10           8   9.0194785756365696E-009
 mort           1           1   3.9718506853873864E-008   1.6534391534391535E-006  0.42797857569937992        5.6128400600352096E-002   0.0000000000000000        0.0000000000000000       0.42797857569937992        3.1503973539536057E-003
 mort           1           2   3.9718506853873864E-008   1.6534391534391535E-006  0.42797857569937992        5.6128400600352096E-002   0.0000000000000000        0.0000000000000000       0.42797857569937992        3.1503973539536057E-003
 mort           1           3   3.9718506853873864E-008   1.6534391534391535E-006  0.42797857569937992        5.6128400600352096E-002   0.0000000000000000        0.0000000000000000       0.42797857569937992        3.1503973539536057E-003
 mort           1           4   3.9718506853873864E-008   1.6534391534391535E-006  0.42797857569937992        5.6128400600352096E-002   0.0000000000000000        0.0000000000000000       0.42797857569937992        3.1503973539536057E-003
 mort           1           5   3.9718506853873866E-009   1.6534391534391535E-006  0.42797857569937992        5.6128400600352103E-003   0.0000000000000000        0.0000000000000000       0.42797857569937992        3.1503973539536062E-005
 mort           1           6   3.9718506853873864E-008   1.6534391534391535E-006  0.42797857569937992        5.6128400600352096E-002   0.0000000000000000        0.0000000000000000       0.42797857569937992        3.1503973539536057E-003
 mort           1           7   2.6585018741174219E-008   2.3148148148148148E-007  0.42797857569937992       0.16259702764832890        1.0476675151849108E-008   9.2592592592592583E-007  0.42797857569937992        2.6437793400071432E-002
 mort           1           8   2.6585018741174219E-008   2.3148148148148148E-007  0.42797857569937992       0.16259702764832890        1.0476675151849108E-008   9.2592592592592583E-007  0.42797857569937992        2.6437793400071432E-002
 graz           1           7           1   4.5886567319296714E-010   6.7375887072606879E-009  0.17200000000000001        4.3924651202240490E-002  0.11093170661125835     
 graz           1           7           2   4.8020826264380287E-010   6.7375887072606879E-009  0.18000000000000002        4.3924651202240490E-002  0.11093170661125835     
 graz           1           7           3   2.6678236813544597E-009   6.7375887072606879E-009   1.0000000000000000        4.3924651202240490E-002  0.11093170661125835     
 graz           1           7           4   2.6678236813544597E-009   6.7375887072606879E-009   1.0000000000000000        4.3924651202240490E-002  0.11093170661125835     
 graz           1           7           5   3.6015619698285206E-011   6.7375887072606879E-009  0.13500000000000001        4.3924651202240494E-003  0.11093170661125835     
 graz           1           7           6   4.2685178901671359E-010   6.7375887072606879E-009  0.16000000000000003        4.3924651202240490E-002  0.11093170661125835     
 graz           1           8           1   2.2860795089896697E-009   8.0477973412397961E-009  0.85999999999999999        4.3924651202240490E-002  0.13298188151478307     
 graz           1           8           2   2.3924087884775615E-009   8.0477973412397961E-009  0.90000000000000002        4.3924651202240490E-002  0.13298188151478307     
 graz           1           8           3   5.3164639743945808E-010   8.0477973412397961E-009  0.20000000000000001        4.3924651202240490E-002  0.13298188151478307     
 graz           1           8           4   5.3164639743945808E-010   8.0477973412397961E-009  0.20000000000000001        4.3924651202240490E-002  0.13298188151478307     
 graz           1           8           5   1.7943065913581710E-010   8.0477973412397961E-009  0.67500000000000004        4.3924651202240494E-003  0.13298188151478307     
 graz           1           8           6   2.1265855897578323E-009   8.0477973412397961E-009  0.80000000000000004        4.3924651202240490E-002  0.13298188151478307     
 prey           1          11           1   2.7449451821826370E-009
 prey           1          11           2   2.8726170511213643E-009
 prey           1          11           3   3.1994700787939176E-009
 prey           1          11           4   3.1994700787939176E-009
 prey           1          11           5   2.1544627883410230E-010
 prey           1          11           6   2.5534373787745457E-009
 pred           1          11           7   4.8292944279878423E-009
 pred           1          11           8   6.5445671524797305E-009
 mort           1           1   3.0762213457583013E-008   1.6534391534391535E-006  0.42356595191807034        4.3924651202240490E-002   0.0000000000000000        0.0000000000000000       0.42356595191807034        1.9293749832384869E-003
 mort           1           2   3.0762213457583013E-008   1.6534391534391535E-006  0.42356595191807034        4.3924651202240490E-002   0.0000000000000000        0.0000000000000000       0.42356595191807034        1.9293749832384869E-003
 mort           1           3   3.0762213457583013E-008   1.6534391534391535E-006  0.42356595191807034        4.3924651202240490E-002   0.0000000000000000        0.0000000000000000       0.42356595191807034        1.9293749832384869E-003
 mort           1           4   3.0762213457583013E-008   1.6534391534391535E-006  0.42356595191807034        4.3924651202240490E-002   0.0000000000000000        0.0000000000000000       0.42356595191807034        1.9293749832384869E-003
 mort           1           5   3.0762213457583009E-009   1.6534391534391535E-006  0.42356595191807034        4.3924651202240485E-003   0.0000000000000000        0.0000000000000000       0.42356595191807034        1.9293749832384866E-005
 mort           1           6   3.0762213457583013E-008   1.6534391534391535E-006  0.42356595191807034        4.3924651202240490E-002   0.0000000000000000        0.0000000000000000       0.42356595191807034        1.9293749832384869E-003
 mort           1           7   2.3838210889040989E-008   2.3148148148148148E-007  0.42356595191807034       0.15141851197283784        8.9919779812185846E-009   9.2592592592592583E-007  0.42356595191807034        2.2927565768068436E-002
 mort           1           8   2.3838210889040989E-008   2.3148148148148148E-007  0.42356595191807034       0.15141851197283784        8.9919779812185846E-009   9.2592592592592583E-007  0.42356595191807034        2.2927565768068436E-002
 graz           1           7           1   3.0551901734643445E-010   4.4859783622582568E-009  0.17200000000000001        3.1730862965188095E-002   8.0136294418582540E-002
 graz           1           7           2   3.1972920419975695E-010   4.4859783622582568E-009  0.18000000000000002        3.1730862965188095E-002   8.0136294418582540E-002
 graz           1           7           3   1.7762733566653165E-009   4.4859783622582568E-009   1.0000000000000000        3.1730862965188095E-002   8.0136294418582540E-002
 graz           1           7           4   1.7762733566653165E-009   4.4859783622582568E-009   1.0000000000000000        3.1730862965188095E-002   8.0136294418582540E-002
 graz           1           7           5   2.3979690314981782E-011   4.4859783622582568E-009  0.13500000000000001        3.1730862965188107E-003   8.0136294418582540E-002
 graz           1           7           6   2.8420373706645067E-010   4.4859783622582568E-009  0.16000000000000003        3.1730862965188095E-002   8.0136294418582540E-002
 graz           1           8           1   1.5236035499484583E-009   5.3636159854290209E-009  0.85999999999999999        3.1730862965188095E-002   9.6065187627106960E-002
 graz           1           8           2   1.5944688313414100E-009   5.3636159854290209E-009  0.90000000000000002        3.1730862965188095E-002   9.6065187627106960E-002
 graz           1           8           3   3.5432640696475777E-010   5.3636159854290209E-009  0.20000000000000001        3.1730862965188095E-002   9.6065187627106960E-002
 graz           1           8           4   3.5432640696475777E-010   5.3636159854290209E-009  0.20000000000000001        3.1730862965188095E-002   9.6065187627106960E-002
 graz           1           8           5   1.1958516235060581E-010   5.3636159854290209E-009  0.67500000000000004        3.1730862965188107E-003   9.6065187627106960E-002
 graz           1           8           6   1.4173056278590311E-009   5.3636159854290209E-009  0.80000000000000004        3.1730862965188095E-002   9.6065187627106960E-002
 prey           1          12           1   1.8291225672948928E-009
 prey           1          12           2   1.9141980355411671E-009
 prey           1          12           3   2.1305997636300741E-009
 prey           1          12           4   2.1305997636300741E-009
 prey           1          12           5   1.4356485266558760E-010
 prey           1          12           6   1.7015093649254818E-009
 pred           1          12           7   3.2154100302355559E-009
 pred           1          12           8   4.3617580697361682E-009
 mort           1           1   2.2001350147082813E-008   1.6534391534391535E-006  0.41935249550427117        3.1730862965188095E-002   0.0000000000000000        0.0000000000000000       0.41935249550427117        1.0068476645155454E-003
 mort           1           2   2.2001350147082813E-008   1.6534391534391535E-006  0.41935249550427117        3.1730862965188095E-002   0.0000000000000000        0.0000000000000000       0.41935249550427117        1.0068476645155454E-003
 mort           1           3   2.2001350147082813E-008   1.6534391534391535E-006  0.41935249550427117        3.1730862965188095E-002   0.0000000000000000        0.0000000000000000       0.41935249550427117        1.0068476645155454E-003
 mort           1           4   2.2001350147082813E-008   1.6534391534391535E-006  0.41935249550427117        3.1730862965188095E-002   0.0000000000000000        0.0000000000000000       0.41935249550427117        1.0068476645155454E-003
 mort           1           5   2.2001350147082811E-009   1.6534391534391535E-006  0.41935249550427117        3.1730862965188094E-003   0.0000000000000000        0.0000000000000000       0.41935249550427117        1.0068476645155453E-005
 mort           1           6   2.2001350147082813E-008   1.6534391534391535E-006  0.41935249550427117        3.1730862965188095E-002   0.0000000000000000        0.0000000000000000       0.41935249550427117        1.0068476645155454E-003
 mort           1           7   2.1252266124313893E-008   2.3148148148148148E-007  0.41935249550427117       0.14025094730741602        7.6377789136187654E-009   9.2592592592592583E-007  0.41935249550427117        1.9670328220627586E-002
 mort           1           8   2.1252266124313893E-008   2.3148148148148148E-007  0.41935249550427117       0.14025094730741602        7.6377789136187654E-009   9.2592592592592583E-007  0.41935249550427117        1.9670328220627586E-002
 graz           1           7           1   2.1960832786674221E-010   3.2245397210898689E-009  0.17200000000000001        2.4713488054122081E-002   6.2413914080685320E-002
 graz           1           7           2   2.2982266869775350E-010   3.2245397210898689E-009  0.18000000000000002        2.4713488054122081E-002   6.2413914080685320E-002
 graz           1           7           3   1.2767926038764081E-009   3.2245397210898689E-009   1.0000000000000000        2.4713488054122081E-002   6.2413914080685320E-002
 graz           1           7           4   1.2767926038764081E-009   3.2245397210898689E-009   1.0000000000000000        2.4713488054122081E-002   6.2413914080685320E-002
 graz           1           7           5   1.7236700152331512E-011   3.2245397210898689E-009  0.13500000000000001        2.4713488054122082E-003   6.2413914080685320E-002
 graz           1           7           6   2.0428681662022535E-010   3.2245397210898689E-009  0.16000000000000003        2.4713488054122081E-002   6.2413914080685320E-002
 graz           1           8           1   1.0957992222804515E-009   3.8575955179698451E-009  0.85999999999999999        2.4713488054122081E-002   7.4820085083854598E-002
 graz           1           8           2   1.1467666279679142E-009   3.8575955179698451E-009  0.90000000000000002        2.4713488054122081E-002   7.4820085083854598E-002
 graz           1           8           3   2.5483702843731430E-010   3.8575955179698451E-009  0.20000000000000001        2.4713488054122081E-002   7.4820085083854598E-002
 graz           1           8           4   2.5483702843731430E-010   3.8575955179698451E-009  0.20000000000000001        2.4713488054122081E-002   7.4820085083854598E-002
 graz           1           8           5   8.6007497097593591E-011   3.8575955179698451E-009  0.67500000000000004        2.4713488054122082E-003   7.4820085083854598E-002
 graz           1           8           6   1.0193481137492572E-009   3.8575955179698451E-009  0.80000000000000004        2.4713488054122081E-002   7.4820085083854598E-002
 prey           1          13           1   1.3154075501471936E-009
 prey           1          13           2   1.3765892966656677E-009
 prey           1          13           3   1.5316296323137224E-009
 prey           1          13           4   1.5316296323137224E-009
 prey           1          13           5   1.0324419724992511E-010
 prey           1          13           6   1.2236349303694826E-009
 pred           1          13           7   2.3112499715370744E-009
 pred           1          13           8   3.1370438200633391E-009
 mort           1           1   1.6965156849624918E-008   1.6534391534391535E-006  0.41517922683284469        2.4713488054122081E-002   0.0000000000000000        0.0000000000000000       0.41517922683284469        6.1075649180123478E-004
 mort           1           2   1.6965156849624918E-008   1.6534391534391535E-006  0.41517922683284469        2.4713488054122081E-002   0.0000000000000000        0.0000000000000000       0.41517922683284469        6.1075649180123478E-004
 mort           1           3   1.6965156849624918E-008   1.6534391534391535E-006  0.41517922683284469        2.4713488054122081E-002   0.0000000000000000        0.0000000000000000       0.41517922683284469        6.1075649180123478E-004
 mort           1           4   1.6965156849624918E-008   1.6534391534391535E-006  0.41517922683284469        2.4713488054122081E-002   0.0000000000000000        0.0000000000000000       0.41517922683284469        6.1075649180123478E-004
 mort           1           5   1.6965156849624906E-009   1.6534391534391535E-006  0.41517922683284469        2.4713488054122069E-003   0.0000000000000000        0.0000000000000000       0.41517922683284469        6.1075649180123419E-006
 mort           1           6   1.6965156849624918E-008   1.6534391534391535E-006  0.41517922683284469        2.4713488054122081E-002   0.0000000000000000        0.0000000000000000       0.41517922683284469        6.1075649180123478E-004
 mort           1           7   1.9060985217906488E-008   2.3148148148148148E-007  0.41517922683284469       0.13035872437405005        6.5326902187088015E-009   9.2592592592592583E-007  0.41517922683284469        1.6993397020429551E-002
 mort           1           8   1.9060985217906488E-008   2.3148148148148148E-007  0.41517922683284469       0.13035872437405005        6.5326902187088015E-009   9.2592592592592583E-007  0.41517922683284469        1.6993397020429551E-002
 graz           1           7           1   1.5919581554254587E-010   2.3374943729808113E-009  0.17200000000000001        1.9423239566027525E-002   4.9053391524002517E-002
 graz           1           7           2   1.6660027207940849E-010   2.3374943729808113E-009  0.18000000000000002        1.9423239566027525E-002   4.9053391524002517E-002
 graz           1           7           3   9.2555706710782475E-010   2.3374943729808113E-009   1.0000000000000000        1.9423239566027525E-002   4.9053391524002517E-002
 graz           1           7           4   9.2555706710782475E-010   2.3374943729808113E-009   1.0000000000000000        1.9423239566027525E-002   4.9053391524002517E-002
 graz           1           7           5   1.2495020405955633E-011   2.3374943729808113E-009  0.13500000000000001        1.9423239566027524E-003   4.9053391524002517E-002
 graz           1           7           6   1.4808913073725200E-010   2.3374943729808113E-009  0.16000000000000003        1.9423239566027525E-002   4.9053391524002517E-002
 graz           1           8           1   7.9469813645241771E-010   2.7976146605926686E-009  0.85999999999999999        1.9423239566027525E-002   5.8803857786148335E-002
 graz           1           8           2   8.3166084047346042E-010   2.7976146605926686E-009  0.90000000000000002        1.9423239566027525E-002   5.8803857786148335E-002
 graz           1           8           3   1.8481352010521349E-010   2.7976146605926686E-009  0.20000000000000001        1.9423239566027525E-002   5.8803857786148335E-002
 graz           1           8           4   1.8481352010521349E-010   2.7976146605926686E-009  0.20000000000000001        1.9423239566027525E-002   5.8803857786148335E-002
 graz           1           8           5   6.2374563035509549E-011   2.7976146605926686E-009  0.67500000000000004        1.9423239566027524E-003   5.8803857786148335E-002
 graz           1           8           6   7.3925408042085397E-010   2.7976146605926686E-009  0.80000000000000004        1.9423239566027525E-002   5.8803857786148335E-002
 prey           1          14           1   9.5389395199496351E-010
 prey           1          14           2   9.9826111255286880E-010
 prey           1          14           3   1.1103705872130382E-009
 prey           1          14           4   1.1103705872130382E-009
 prey           1          14           5   7.4869583441465176E-011
 prey           1          14           6   8.8734321115810599E-010
 pred           1          14           7   1.6754434028785844E-009
 pred           1          14           8   2.2750544324951779E-009
 mort           1           1   1.3231986181702017E-008   1.6534391534391535E-006  0.41201701783520284        1.9423239566027525E-002   0.0000000000000000        0.0000000000000000       0.41201701783520284        3.7726223523929712E-004
 mort           1           2   1.3231986181702017E-008   1.6534391534391535E-006  0.41201701783520284        1.9423239566027525E-002   0.0000000000000000        0.0000000000000000       0.41201701783520284        3.7726223523929712E-004
 mort           1           3   1.3231986181702017E-008   1.6534391534391535E-006  0.41201701783520284        1.9423239566027525E-002   0.0000000000000000        0.0000000000000000       0.41201701783520284        3.7726223523929712E-004
 mort           1           4   1.3231986181702017E-008   1.6534391534391535E-006  0.41201701783520284        1.9423239566027525E-002   0.0000000000000000        0.0000000000000000       0.41201701783520284        3.7726223523929712E-004
 mort           1           5   1.3231986181702008E-009   1.6534391534391535E-006  0.41201701783520284        1.9423239566027511E-003   0.0000000000000000        0.0000000000000000       0.41201701783520284        3.7726223523929660E-006
 mort           1           6   1.3231986181702017E-008   1.6534391534391535E-006  0.41201701783520284        1.9423239566027525E-002   0.0000000000000000        0.0000000000000000       0.41201701783520284        3.7726223523929712E-004
 mort           1           7   1.7105529877336474E-008   2.3148148148148148E-007  0.41201701783520284       0.12089202196378504        5.5755367362284753E-009   9.2592592592592583E-007  0.41201701783520284        1.4614880974492284E-002
 mort           1           8   1.7105529877336474E-008   2.3148148148148148E-007  0.41201701783520284       0.12089202196378504        5.5755367362284753E-009   9.2592592592592583E-007  0.41201701783520284        1.4614880974492284E-002
 graz           1           7           1   9.4264362105252946E-011   1.3840967819582342E-009  0.17200000000000001        1.2811414008555243E-002   3.2355226078606268E-002
 graz           1           7           2   9.8648751040380979E-011   1.3840967819582342E-009  0.18000000000000002        1.2811414008555243E-002   3.2355226078606268E-002
 graz           1           7           3   5.4804861689100542E-010   1.3840967819582342E-009   1.0000000000000000        1.2811414008555243E-002   3.2355226078606268E-002
 graz           1           7           4   5.4804861689100542E-010   1.3840967819582342E-009   1.0000000000000000        1.2811414008555243E-002   3.2355226078606268E-002
 graz           1           7           5   7.3986563280285754E-012   1.3840967819582342E-009  0.13500000000000001        1.2811414008555245E-003   3.2355226078606268E-002
 graz           1           7           6   8.7687778702560884E-011   1.3840967819582342E-009  0.16000000000000003        1.2811414008555243E-002   3.2355226078606268E-002
 graz           1           8           1   4.7081988002243191E-010   1.6574502171719915E-009  0.85999999999999999        1.2811414008555243E-002   3.8786555910901008E-002
 graz           1           8           2   4.9271847909324263E-010   1.6574502171719915E-009  0.90000000000000002        1.2811414008555243E-002   3.8786555910901008E-002
 graz           1           8           3   1.0949299535405391E-010   1.6574502171719915E-009  0.20000000000000001        1.2811414008555243E-002   3.8786555910901008E-002
 graz           1           8           4   1.0949299535405391E-010   1.6574502171719915E-009  0.20000000000000001        1.2811414008555243E-002   3.8786555910901008E-002
 graz           1           8           5   3.6953885931993204E-011   1.6574502171719915E-009  0.67500000000000004        1.2811414008555245E-003   3.8786555910901008E-002
 graz           1           8           6   4.3797198141621564E-010   1.6574502171719915E-009  0.80000000000000004        1.2811414008555243E-002   3.8786555910901008E-002
 prey           1          15           1   5.6508424212768487E-010
 prey           1          15           2   5.9136723013362365E-010
 prey           1          15           3   6.5754161224505930E-010
 prey           1          15           4   6.5754161224505930E-010
 prey           1          15           5   4.4352542260021777E-011
 prey           1          15           6   5.2565976011877651E-010
 pred           1          15           7   9.9207760629609806E-010
 pred           1          15           8   1.3478587728084037E-009
 mort           1           1   8.6611552145621627E-009   1.6534391534391535E-006  0.40887498212681062        1.2811414008555242E-002   0.0000000000000000        0.0000000000000000       0.40887498212681062        1.6413232889860547E-004
 mort           1           2   8.6611552145621627E-009   1.6534391534391535E-006  0.40887498212681062        1.2811414008555242E-002   0.0000000000000000        0.0000000000000000       0.40887498212681062        1.6413232889860547E-004
 mort           1           3   8.6611552145621627E-009   1.6534391534391535E-006  0.40887498212681062        1.2811414008555242E-002   0.0000000000000000        0.0000000000000000       0.40887498212681062        1.6413232889860547E-004
 mort           1           4   8.6611552145621627E-009   1.6534391534391535E-006  0.40887498212681062        1.2811414008555242E-002   0.0000000000000000        0.0000000000000000       0.40887498212681062        1.6413232889860547E-004
 mort           1           5   8.6611552145621559E-010   1.6534391534391535E-006  0.40887498212681062        1.2811414008555232E-003   0.0000000000000000        0.0000000000000000       0.40887498212681062        1.6413232889860525E-006
 mort           1           6   8.6611552145621627E-009   1.6534391534391535E-006  0.40887498212681062        1.2811414008555242E-002   0.0000000000000000        0.0000000000000000       0.40887498212681062        1.6413232889860547E-004
 mort           1           7   1.4825014399494050E-008   2.3148148148148148E-007  0.40887498212681062       0.10905919512118176        4.5028902198788769E-009   9.2592592592592583E-007  0.40887498212681062        1.1893908040479994E-002
 mort           1           8   1.4825014399494050E-008   2.3148148148148148E-007  0.40887498212681062       0.10905919512118176        4.5028902198788769E-009   9.2592592592592583E-007  0.40887498212681062        1.1893908040479994E-002
 graz           1           7           1   4.0296311022243096E-011   5.9167635748066830E-010  0.17200000000000001        6.1802487751108663E-003   1.5608218281542494E-002
 graz           1           7           2   4.2170558046533479E-011   5.9167635748066830E-010  0.18000000000000002        6.1802487751108663E-003   1.5608218281542494E-002
 graz           1           7           3   2.3428087803629704E-010   5.9167635748066830E-010   1.0000000000000000        6.1802487751108663E-003   1.5608218281542494E-002
 graz           1           7           4   2.3428087803629704E-010   5.9167635748066830E-010   1.0000000000000000        6.1802487751108663E-003   1.5608218281542494E-002
 graz           1           7           5   3.1627918534900103E-012   5.9167635748066830E-010  0.13500000000000001        6.1802487751108658E-004   1.5608218281542494E-002
 graz           1           7           6   3.7484940485807540E-011   5.9167635748066830E-010  0.16000000000000003        6.1802487751108663E-003   1.5608218281542494E-002
 graz           1           8           1   2.0137772241360447E-010   7.0891983093859030E-010  0.85999999999999999        6.1802487751108663E-003   1.8710703166648149E-002
 graz           1           8           2   2.1074412810726050E-010   7.0891983093859030E-010  0.90000000000000002        6.1802487751108663E-003   1.8710703166648149E-002
 graz           1           8           3   4.6832028468280117E-011   7.0891983093859030E-010  0.20000000000000001        6.1802487751108663E-003   1.8710703166648149E-002
 graz           1           8           4   4.6832028468280117E-011   7.0891983093859030E-010  0.20000000000000001        6.1802487751108663E-003   1.8710703166648149E-002
 graz           1           8           5   1.5805809608044538E-011   7.0891983093859030E-010  0.67500000000000004        6.1802487751108658E-004   1.8710703166648149E-002
 graz           1           8           6   1.8732811387312047E-010   7.0891983093859030E-010  0.80000000000000004        6.1802487751108663E-003   1.8710703166648149E-002
 prey           1          16           1   2.4167403343584756E-010
 prey           1          16           2   2.5291468615379401E-010
 prey           1          16           3   2.8111290650457716E-010
 prey           1          16           4   2.8111290650457716E-010
 prey           1          16           5   1.8968601461534548E-011
 prey           1          16           6   2.2481305435892800E-010
 pred           1          16           7   4.2409524542130498E-010
 pred           1          16           8   5.7650227044452821E-010
 mort           1           1   4.1428012526305342E-009   1.6534391534391535E-006  0.40541510362517735        6.1802487751108654E-003   0.0000000000000000        0.0000000000000000       0.40541510362517735        3.8195474922259352E-005
 mort           1           2   4.1428012526305342E-009   1.6534391534391535E-006  0.40541510362517735        6.1802487751108654E-003   0.0000000000000000        0.0000000000000000       0.40541510362517735        3.8195474922259352E-005
 mort           1           3   4.1428012526305342E-009   1.6534391534391535E-006  0.40541510362517735        6.1802487751108654E-003   0.0000000000000000        0.0000000000000000       0.40541510362517735        3.8195474922259352E-005
 mort           1           4   4.1428012526305342E-009   1.6534391534391535E-006  0.40541510362517735        6.1802487751108654E-003   0.0000000000000000        0.0000000000000000       0.40541510362517735        3.8195474922259352E-005
 mort           1           5   4.1428012526305267E-010   1.6534391534391535E-006  0.40541510362517735        6.1802487751108539E-004   0.0000000000000000        0.0000000000000000       0.40541510362517735        3.8195474922259208E-007
 mort           1           6   4.1428012526305342E-009   1.6534391534391535E-006  0.40541510362517735        6.1802487751108654E-003   0.0000000000000000        0.0000000000000000       0.40541510362517735        3.8195474922259352E-005
 mort           1           7   1.2667974773207521E-008   2.3148148148148148E-007  0.40541510362517735        9.7197384094661693E-002   3.5463804341257068E-009   9.2592592592592583E-007  0.40541510362517735        9.4473314748451942E-003
 mort           1           8   1.2667974773207521E-008   2.3148148148148148E-007  0.40541510362517735        9.7197384094661693E-002   3.5463804341257068E-009   9.2592592592592583E-007  0.40541510362517735        9.4473314748451942E-003
 graz           1           7           1   3.9160656695452159E-011   5.7500138653700244E-010  0.17200000000000001        6.0594215967898222E-003   1.5303069242692695E-002
 graz           1           7           2   4.0982082588263888E-011   5.7500138653700244E-010  0.18000000000000002        6.0594215967898222E-003   1.5303069242692695E-002
 graz           1           7           3   2.2767823660146603E-010   5.7500138653700244E-010   1.0000000000000000        6.0594215967898222E-003   1.5303069242692695E-002
 graz           1           7           4   2.2767823660146603E-010   5.7500138653700244E-010   1.0000000000000000        6.0594215967898222E-003   1.5303069242692695E-002
 graz           1           7           5   3.0736561941197922E-012   5.7500138653700244E-010  0.13500000000000001        6.0594215967898232E-004   1.5303069242692695E-002
 graz           1           7           6   3.6428517856234576E-011   5.7500138653700244E-010  0.16000000000000003        6.0594215967898222E-003   1.5303069242692695E-002
 graz           1           8           1   1.9570434479914315E-010   6.8894756265047194E-010  0.85999999999999999        6.0594215967898222E-003   1.8344898884281185E-002
 graz           1           8           2   2.0480687246421959E-010   6.8894756265047194E-010  0.90000000000000002        6.0594215967898222E-003   1.8344898884281185E-002
 graz           1           8           3   4.5512638325382135E-011   6.8894756265047194E-010  0.20000000000000001        6.0594215967898222E-003   1.8344898884281185E-002
 graz           1           8           4   4.5512638325382135E-011   6.8894756265047194E-010  0.20000000000000001        6.0594215967898222E-003   1.8344898884281185E-002
 graz           1           8           5   1.5360515434816474E-011   6.8894756265047194E-010  0.67500000000000004        6.0594215967898232E-004   1.8344898884281185E-002
 graz           1           8           6   1.8205055330152854E-010   6.8894756265047194E-010  0.80000000000000004        6.0594215967898222E-003   1.8344898884281185E-002
 prey           1          17           1   2.3486500149459532E-010
 prey           1          17           2   2.4578895505248351E-010
 prey           1          17           3   2.7319087492684816E-010
 prey           1          17           4   2.7319087492684816E-010
 prey           1          17           5   1.8434171628936266E-011
 prey           1          17           6   2.1847907115776311E-010
 pred           1          17           7   4.1214314389597381E-010
 pred           1          17           8   5.6026057778545406E-010
 mort           1           1   4.0334165548016230E-009   1.6534391534391535E-006  0.40258138394535542        6.0594215967898213E-003   0.0000000000000000        0.0000000000000000       0.40258138394535542        3.6716590087642905E-005
 mort           1           2   4.0334165548016230E-009   1.6534391534391535E-006  0.40258138394535542        6.0594215967898213E-003   0.0000000000000000        0.0000000000000000       0.40258138394535542        3.6716590087642905E-005
 mort           1           3   4.0334165548016230E-009   1.6534391534391535E-006  0.40258138394535542        6.0594215967898213E-003   0.0000000000000000        0.0000000000000000       0.40258138394535542        3.6716590087642905E-005
 mort           1           4   4.0334165548016230E-009   1.6534391534391535E-006  0.40258138394535542        6.0594215967898213E-003   0.0000000000000000        0.0000000000000000       0.40258138394535542        3.6716590087642905E-005
 mort           1           5   4.0334165548016170E-010   1.6534391534391535E-006  0.40258138394535542        6.0594215967898113E-004   0.0000000000000000        0.0000000000000000       0.40258138394535542        3.6716590087642788E-007
 mort           1           6   4.0334165548016230E-009   1.6534391534391535E-006  0.40258138394535542        6.0594215967898213E-003   0.0000000000000000        0.0000000000000000       0.40258138394535542        3.6716590087642905E-005
 mort           1           7   1.2549206164034440E-008   2.3148148148148148E-007  0.40258138394535542        9.7014857753860456E-002   3.5083784562078339E-009   9.2592592592592583E-007  0.40258138394535542        9.4118826250017776E-003
 mort           1           8   1.2549206164034440E-008   2.3148148148148148E-007  0.40258138394535542        9.7014857753860456E-002   3.5083784562078339E-009   9.2592592592592583E-007  0.40258138394535542        9.4118826250017776E-003
 graz           1           7           1   3.8048979667960409E-011   5.5867847762461628E-010  0.17200000000000001        5.9396361731701318E-003   1.5000551155341168E-002
 graz           1           7           2   3.9818699652516712E-011   5.5867847762461628E-010  0.18000000000000002        5.9396361731701318E-003   1.5000551155341168E-002
 graz           1           7           3   2.2121499806953723E-010   5.5867847762461628E-010   1.0000000000000000        5.9396361731701318E-003   1.5000551155341168E-002
 graz           1           7           4   2.2121499806953723E-010   5.5867847762461628E-010   1.0000000000000000        5.9396361731701318E-003   1.5000551155341168E-002
 graz           1           7           5   2.9864024739387532E-012   5.5867847762461628E-010  0.13500000000000001        5.9396361731701324E-004   1.5000551155341168E-002
 graz           1           7           6   3.5394399691125971E-011   5.5867847762461628E-010  0.16000000000000003        5.9396361731701318E-003   1.5000551155341168E-002
 graz           1           8           1   1.9015066394381560E-010   6.6939666870918821E-010  0.85999999999999999        5.9396361731701318E-003   1.7982248514272575E-002
 graz           1           8           2   1.9899488087143498E-010   6.6939666870918821E-010  0.90000000000000002        5.9396361731701318E-003   1.7982248514272575E-002
 graz           1           8           3   4.4221084638096659E-011   6.6939666870918821E-010  0.20000000000000001        5.9396361731701318E-003   1.7982248514272575E-002
 graz           1           8           4   4.4221084638096659E-011   6.6939666870918821E-010  0.20000000000000001        5.9396361731701318E-003   1.7982248514272575E-002
 graz           1           8           5   1.4924616065357625E-011   6.6939666870918821E-010  0.67500000000000004        5.9396361731701324E-004   1.7982248514272575E-002
 graz           1           8           6   1.7688433855238664E-010   6.6939666870918821E-010  0.80000000000000004        5.9396361731701318E-003   1.7982248514272575E-002
 prey           1          18           1   2.2819964361177601E-010
 prey           1          18           2   2.3881358052395171E-010
 prey           1          18           3   2.6543608270763390E-010
 prey           1          18           4   2.6543608270763390E-010
 prey           1          18           5   1.7911018539296378E-011
 prey           1          18           6   2.1227873824351261E-010
 pred           1          18           7   4.0044338950547630E-010
 pred           1          18           8   5.4436155189496992E-010
 mort           1           1   3.9260317423167876E-009   1.6534391534391535E-006  0.39976589954766251        5.9396361731701309E-003   0.0000000000000000        0.0000000000000000       0.39976589954766251        3.5279277869631119E-005
 mort           1           2   3.9260317423167876E-009   1.6534391534391535E-006  0.39976589954766251        5.9396361731701309E-003   0.0000000000000000        0.0000000000000000       0.39976589954766251        3.5279277869631119E-005
 mort           1           3   3.9260317423167876E-009   1.6534391534391535E-006  0.39976589954766251        5.9396361731701309E-003   0.0000000000000000        0.0000000000000000       0.39976589954766251        3.5279277869631119E-005
 mort           1           4   3.9260317423167876E-009   1.6534391534391535E-006  0.39976589954766251        5.9396361731701309E-003   0.0000000000000000        0.0000000000000000       0.39976589954766251        3.5279277869631119E-005
 mort           1           5   3.9260317423167809E-010   1.6534391534391535E-006  0.39976589954766251        5.9396361731701205E-004   0.0000000000000000        0.0000000000000000       0.39976589954766251        3.5279277869630994E-007
 mort           1           6   3.9260317423167876E-009   1.6534391534391535E-006  0.39976589954766251        5.9396361731701309E-003   0.0000000000000000        0.0000000000000000       0.39976589954766251        3.5279277869631119E-005
 mort           1           7   1.2431760392327865E-008   2.3148148148148148E-007  0.39976589954766251        9.6834192490377072E-002   3.4708788951317765E-009   9.2592592592592583E-007  0.39976589954766251        9.3768608352633991E-003
 mort           1           8   1.2431760392327865E-008   2.3148148148148148E-007  0.39976589954766251        9.6834192490377072E-002   3.4708788951317765E-009   9.2592592592592583E-007  0.39976589954766251        9.3768608352633991E-003
 graz           1           7           1   3.6965625381363250E-011   5.4277143546879589E-010  0.17200000000000001        5.8198346031908786E-003   1.4697992290358564E-002
 graz           1           7           2   3.8684956794449923E-011   5.4277143546879589E-010  0.18000000000000002        5.8198346031908786E-003   1.4697992290358564E-002
 graz           1           7           3   2.1491642663583286E-010   5.4277143546879589E-010   1.0000000000000000        5.8198346031908786E-003   1.4697992290358564E-002
 graz           1           7           4   2.1491642663583286E-010   5.4277143546879589E-010   1.0000000000000000        5.8198346031908786E-003   1.4697992290358564E-002
 graz           1           7           5   2.9013717595837445E-012   5.4277143546879589E-010  0.13500000000000001        5.8198346031908797E-004   1.4697992290358564E-002
 graz           1           7           6   3.4386628261733267E-011   5.4277143546879589E-010  0.16000000000000003        5.8198346031908786E-003   1.4697992290358564E-002
 graz           1           8           1   1.8473841777794988E-010   6.5034367421249199E-010  0.85999999999999999        5.8198346031908786E-003   1.7619549261160383E-002
 graz           1           8           2   1.9333090232576147E-010   6.5034367421249199E-010  0.90000000000000002        5.8198346031908786E-003   1.7619549261160383E-002
 graz           1           8           3   4.2962422739058104E-011   6.5034367421249199E-010  0.20000000000000001        5.8198346031908786E-003   1.7619549261160383E-002
 graz           1           8           4   4.2962422739058104E-011   6.5034367421249199E-010  0.20000000000000001        5.8198346031908786E-003   1.7619549261160383E-002
 graz           1           8           5   1.4499817674432114E-011   6.5034367421249199E-010  0.67500000000000004        5.8198346031908797E-004   1.7619549261160383E-002
 graz           1           8           6   1.7184969095623242E-010   6.5034367421249199E-010  0.80000000000000004        5.8198346031908786E-003   1.7619549261160383E-002
 prey           1          19           1   2.2170404315931313E-010
 prey           1          19           2   2.3201585912021138E-010
 prey           1          19           3   2.5787884937489097E-010
 prey           1          19           4   2.5787884937489097E-010
 prey           1          19           5   1.7401189434015858E-011
 prey           1          19           6   2.0623631921796569E-010
 pred           1          19           7   3.8904171549618467E-010
 pred           1          19           8   5.2886742391780525E-010
 mort           1           1   3.8211916338148711E-009   1.6534391534391535E-006  0.39710006515720164        5.8198346031908777E-003   0.0000000000000000        0.0000000000000000       0.39710006515720164        3.3870474808497925E-005
 mort           1           2   3.8211916338148711E-009   1.6534391534391535E-006  0.39710006515720164        5.8198346031908777E-003   0.0000000000000000        0.0000000000000000       0.39710006515720164        3.3870474808497925E-005
 mort           1           3   3.8211916338148711E-009   1.6534391534391535E-006  0.39710006515720164        5.8198346031908777E-003   0.0000000000000000        0.0000000000000000       0.39710006515720164        3.3870474808497925E-005
 mort           1           4   3.8211916338148711E-009   1.6534391534391535E-006  0.39710006515720164        5.8198346031908777E-003   0.0000000000000000        0.0000000000000000       0.39710006515720164        3.3870474808497925E-005
 mort           1           5   3.8211916338148653E-010   1.6534391534391535E-006  0.39710006515720164        5.8198346031908678E-004   0.0000000000000000        0.0000000000000000       0.39710006515720164        3.3870474808497805E-007
 mort           1           6   3.8211916338148711E-009   1.6534391534391535E-006  0.39710006515720164        5.8198346031908777E-003   0.0000000000000000        0.0000000000000000       0.39710006515720164        3.3870474808497925E-005
 mort           1           7   1.2319371069582860E-008   2.3148148148148148E-007  0.39710006515720164        9.6653353678184270E-002   3.4348680503076226E-009   9.2592592592592583E-007  0.39710006515720164        9.3418707772401771E-003
 mort           1           8   1.2319371069582860E-008   2.3148148148148148E-007  0.39710006515720164        9.6653353678184270E-002   3.4348680503076226E-009   9.2592592592592583E-007  0.39710006515720164        9.3418707772401771E-003
 graz           1           7           1   3.4577264789064546E-011   5.0770280363245641E-010  0.17200000000000001        5.5642624091966813E-003   1.4052544714426220E-002
 graz           1           7           2   3.6185509662974526E-011   5.0770280363245641E-010  0.18000000000000002        5.5642624091966813E-003   1.4052544714426220E-002
 graz           1           7           3   2.0103060923874734E-010   5.0770280363245641E-010   1.0000000000000000        5.5642624091966813E-003   1.4052544714426220E-002
 graz           1           7           4   2.0103060923874734E-010   5.0770280363245641E-010   1.0000000000000000        5.5642624091966813E-003   1.4052544714426220E-002
 graz           1           7           5   2.7139132247230895E-012   5.0770280363245641E-010  0.13500000000000001        5.5642624091966828E-004   1.4052544714426220E-002
 graz           1           7           6   3.2164897478199573E-011   5.0770280363245641E-010  0.16000000000000003        5.5642624091966813E-003   1.4052544714426220E-002
 graz           1           8           1   1.7280608768854643E-010   6.0833770985706322E-010  0.85999999999999999        5.5642624091966813E-003   1.6845804443842954E-002
 graz           1           8           2   1.8084358013917652E-010   6.0833770985706322E-010  0.90000000000000002        5.5642624091966813E-003   1.6845804443842954E-002
 graz           1           8           3   4.0187462253150336E-011   6.0833770985706322E-010  0.20000000000000001        5.5642624091966813E-003   1.6845804443842954E-002
 graz           1           8           4   4.0187462253150336E-011   6.0833770985706322E-010  0.20000000000000001        5.5642624091966813E-003   1.6845804443842954E-002
 graz           1           8           5   1.3563268510438242E-011   6.0833770985706322E-010  0.67500000000000004        5.5642624091966828E-004   1.6845804443842954E-002
 graz           1           8           6   1.6074984901260134E-010   6.0833770985706322E-010  0.80000000000000004        5.5642624091966813E-003   1.6845804443842954E-002
 prey           1          20           1   2.0738335247761097E-010
 prey           1          20           2   2.1702908980215104E-010
 prey           1          20           3   2.4121807149189769E-010
 prey           1          20           4   2.4121807149189769E-010
 prey           1          20           5   1.6277181735161331E-011
 prey           1          20           6   1.9291474649080092E-010
 pred           1          20           7   3.6390560884398048E-010
 pred           1          20           8   4.9470766033628062E-010
 mort           1           1   3.6314020305857517E-009   1.6534391534391535E-006  0.39471034731723609        5.5642624091966804E-003   0.0000000000000000        0.0000000000000000       0.39471034731723609        3.0961016158399248E-005
 mort           1           2   3.6314020305857517E-009   1.6534391534391535E-006  0.39471034731723609        5.5642624091966804E-003   0.0000000000000000        0.0000000000000000       0.39471034731723609        3.0961016158399248E-005
 mort           1           3   3.6314020305857517E-009   1.6534391534391535E-006  0.39471034731723609        5.5642624091966804E-003   0.0000000000000000        0.0000000000000000       0.39471034731723609        3.0961016158399248E-005
 mort           1           4   3.6314020305857517E-009   1.6534391534391535E-006  0.39471034731723609        5.5642624091966804E-003   0.0000000000000000        0.0000000000000000       0.39471034731723609        3.0961016158399248E-005
 mort           1           5   3.6314020305857451E-010   1.6534391534391535E-006  0.39471034731723609        5.5642624091966708E-004   0.0000000000000000        0.0000000000000000       0.39471034731723609        3.0961016158399140E-007
 mort           1           6   3.6314020305857517E-009   1.6534391534391535E-006  0.39471034731723609        5.5642624091966804E-003   0.0000000000000000        0.0000000000000000       0.39471034731723609        3.0961016158399248E-005
 mort           1           7   1.1998213143737358E-008   2.3148148148148148E-007  0.39471034731723609        9.5123407817348987E-002   3.3069646859630740E-009   9.2592592592592583E-007  0.39471034731723609        9.0484627147856909E-003
 mort           1           8   1.1998213143737358E-008   2.3148148148148148E-007  0.39471034731723609        9.5123407817348987E-002   3.3069646859630740E-009   9.2592592592592583E-007  0.39471034731723609        9.0484627147856909E-003
 graz           1           7           1   2.4487028826238571E-011   3.5954646105038089E-010  0.17200000000000001        4.4784831633973132E-003   1.1310409229159915E-002
 graz           1           7           2   2.5625960399551992E-011   3.5954646105038089E-010  0.18000000000000002        4.4784831633973132E-003   1.1310409229159915E-002
 graz           1           7           3   1.4236644666417772E-010   3.5954646105038089E-010   1.0000000000000000        4.4784831633973132E-003   1.1310409229159915E-002
 graz           1           7           4   1.4236644666417772E-010   3.5954646105038089E-010   1.0000000000000000        4.4784831633973132E-003   1.1310409229159915E-002
 graz           1           7           5   1.9219470299663991E-012   3.5954646105038089E-010  0.13500000000000001        4.4784831633973120E-004   1.1310409229159915E-002
 graz           1           7           6   2.2778631466268440E-011   3.5954646105038089E-010  0.16000000000000003        4.4784831633973132E-003   1.1310409229159915E-002
 graz           1           8           1   1.2238939267966563E-010   4.3085335620661365E-010  0.85999999999999999        4.4784831633973132E-003   1.3558607777185367E-002
 graz           1           8           2   1.2808192257174310E-010   4.3085335620661365E-010  0.90000000000000002        4.4784831633973132E-003   1.3558607777185367E-002
 graz           1           8           3   2.8462649460387360E-011   4.3085335620661365E-010  0.20000000000000001        4.4784831633973132E-003   1.3558607777185367E-002
 graz           1           8           4   2.8462649460387360E-011   4.3085335620661365E-010  0.20000000000000001        4.4784831633973132E-003   1.3558607777185367E-002
 graz           1           8           5   9.6061441928807328E-012   4.3085335620661365E-010  0.67500000000000004        4.4784831633973120E-004   1.3558607777185367E-002
 graz           1           8           6   1.1385059784154944E-010   4.3085335620661365E-010  0.80000000000000004        4.4784831633973132E-003   1.3558607777185367E-002
 prey           1          21           1   1.4687642150590421E-010
 prey           1          21           2   1.5370788297129510E-010
 prey           1          21           3   1.7082909612456509E-010
 prey           1          21           4   1.7082909612456509E-010
 prey           1          21           5   1.1528091222847132E-011
 prey           1          21           6   1.3662922930781788E-010
 pred           1          21           7   2.5771174175149449E-010
 pred           1          21           8   3.5037521485736844E-010
 mort           1           1   2.8993543121606440E-009   1.6534391534391535E-006  0.39154540142661953        4.4784831633973123E-003   0.0000000000000000        0.0000000000000000       0.39154540142661953        2.0056811444833197E-005
 mort           1           2   2.8993543121606440E-009   1.6534391534391535E-006  0.39154540142661953        4.4784831633973123E-003   0.0000000000000000        0.0000000000000000       0.39154540142661953        2.0056811444833197E-005
 mort           1           3   2.8993543121606440E-009   1.6534391534391535E-006  0.39154540142661953        4.4784831633973123E-003   0.0000000000000000        0.0000000000000000       0.39154540142661953        2.0056811444833197E-005
 mort           1           4   2.8993543121606440E-009   1.6534391534391535E-006  0.39154540142661953        4.4784831633973123E-003   0.0000000000000000        0.0000000000000000       0.39154540142661953        2.0056811444833197E-005
 mort           1           5   2.8993543121606365E-010   1.6534391534391535E-006  0.39154540142661953        4.4784831633973000E-004   0.0000000000000000        0.0000000000000000       0.39154540142661953        2.0056811444833088E-007
 mort           1           6   2.8993543121606440E-009   1.6534391534391535E-006  0.39154540142661953        4.4784831633973123E-003   0.0000000000000000        0.0000000000000000       0.39154540142661953        2.0056811444833197E-005
 mort           1           7   1.0222289094751620E-008   2.3148148148148148E-007  0.39154540142661953        8.4335014617133164E-002   2.5785420686902240E-009   9.2592592592592583E-007  0.39154540142661953        7.1123946904720643E-003
 mort           1           8   1.0222289094751620E-008   2.3148148148148148E-007  0.39154540142661953        8.4335014617133164E-002   2.5785420686902240E-009   9.2592592592592583E-007  0.39154540142661953        7.1123946904720643E-003
 graz           1           7           1   1.6048364013262346E-011   2.3564036811333753E-010  0.17200000000000001        3.3926327181832967E-003   8.5680939297719163E-003
 graz           1           7           2   1.6794799548762923E-011   2.3564036811333753E-010  0.18000000000000002        3.3926327181832967E-003   8.5680939297719163E-003
 graz           1           7           3   9.3304441937571770E-011   2.3564036811333753E-010   1.0000000000000000        3.3926327181832967E-003   8.5680939297719163E-003
 graz           1           7           4   9.3304441937571770E-011   2.3564036811333753E-010   1.0000000000000000        3.3926327181832967E-003   8.5680939297719163E-003
 graz           1           7           5   1.2596099661572190E-012   2.3564036811333753E-010  0.13500000000000001        3.3926327181832969E-004   8.5680939297719163E-003
 graz           1           7           6   1.4928710710011489E-011   2.3564036811333753E-010  0.16000000000000003        3.3926327181832967E-003   8.5680939297719163E-003
 graz           1           8           1   8.0219100957103628E-011   2.8239921877631544E-010  0.85999999999999999        3.3926327181832967E-003   1.0271195554299933E-002
 graz           1           8           2   8.3950221931852638E-011   2.8239921877631544E-010  0.90000000000000002        3.3926327181832967E-003   1.0271195554299933E-002
 graz           1           8           3   1.8655604873745031E-011   2.8239921877631544E-010  0.20000000000000001        3.3926327181832967E-003   1.0271195554299933E-002
 graz           1           8           4   1.8655604873745031E-011   2.8239921877631544E-010  0.20000000000000001        3.3926327181832967E-003   1.0271195554299933E-002
 graz           1           8           5   6.2962666448889482E-012   2.8239921877631544E-010  0.67500000000000004        3.3926327181832969E-004   1.0271195554299933E-002
 graz           1           8           6   7.4622419494980126E-011   2.8239921877631544E-010  0.80000000000000004        3.3926327181832967E-003   1.0271195554299933E-002
 prey           1          22           1   9.6267464970365968E-011
 prey           1          22           2   1.0074502148061556E-010
 prey           1          22           3   1.1196004681131680E-010
 prey           1          22           4   1.1196004681131680E-010
 prey           1          22           5   7.5558766110461670E-012
 prey           1          22           6   8.9551130204991612E-011
 pred           1          22           7   1.6889970079539244E-010
 pred           1          22           8   2.2965049599580134E-010
 mort           1           1   2.1779499997776993E-009   1.6534391534391535E-006  0.38826017116609851        3.3926327181832954E-003   0.0000000000000000        0.0000000000000000       0.38826017116609851        1.1509956760487776E-005
 mort           1           2   2.1779499997776993E-009   1.6534391534391535E-006  0.38826017116609851        3.3926327181832954E-003   0.0000000000000000        0.0000000000000000       0.38826017116609851        1.1509956760487776E-005
 mort           1           3   2.1779499997776993E-009   1.6534391534391535E-006  0.38826017116609851        3.3926327181832954E-003   0.0000000000000000        0.0000000000000000       0.38826017116609851        1.1509956760487776E-005
 mort           1           4   2.1779499997776993E-009   1.6534391534391535E-006  0.38826017116609851        3.3926327181832954E-003   0.0000000000000000        0.0000000000000000       0.38826017116609851        1.1509956760487776E-005
 mort           1           5   2.1779499997776921E-010   1.6534391534391535E-006  0.38826017116609851        3.3926327181832850E-004   0.0000000000000000        0.0000000000000000       0.38826017116609851        1.1509956760487705E-007
 mort           1           6   2.1779499997776993E-009   1.6534391534391535E-006  0.38826017116609851        3.3926327181832954E-003   0.0000000000000000        0.0000000000000000       0.38826017116609851        1.1509956760487776E-005
 mort           1           7   8.5544646815445675E-009   2.3148148148148148E-007  0.38826017116609851        7.3545814966063411E-002   1.9445316474533663E-009   9.2592592592592583E-007  0.38826017116609851        5.4089868990224365E-003
 mort           1           8   8.5544646815445675E-009   2.3148148148148148E-007  0.38826017116609851        7.3545814966063411E-002   1.9445316474533663E-009   9.2592592592592583E-007  0.38826017116609851        5.4089868990224365E-003
 graz           1           7           1   9.2338844968531497E-012   1.3558241451629434E-010  0.17200000000000001        2.3068066861471064E-003   5.8258402858645166E-003
 graz           1           7           2   9.6633674967067864E-012   1.3558241451629434E-010  0.18000000000000002        2.3068066861471064E-003   5.8258402858645166E-003
 graz           1           7           3   5.3685374981704351E-011   1.3558241451629434E-010   1.0000000000000000        2.3068066861471064E-003   5.8258402858645166E-003
 graz           1           7           4   5.3685374981704351E-011   1.3558241451629434E-010   1.0000000000000000        2.3068066861471064E-003   5.8258402858645166E-003
 graz           1           7           5   7.2475256225300902E-013   1.3558241451629434E-010  0.13500000000000001        2.3068066861471067E-004   5.8258402858645166E-003
 graz           1           7           6   8.5896599970726987E-012   1.3558241451629434E-010  0.16000000000000003        2.3068066861471064E-003   5.8258402858645166E-003
 graz           1           8           1   4.6160537780885755E-011   1.6250119550189722E-010  0.85999999999999999        2.3068066861471064E-003   6.9838572423103640E-003
 graz           1           8           2   4.8307539538136261E-011   1.6250119550189722E-010  0.90000000000000002        2.3068066861471064E-003   6.9838572423103640E-003
 graz           1           8           3   1.0735008786252501E-011   1.6250119550189722E-010  0.20000000000000001        2.3068066861471064E-003   6.9838572423103640E-003
 graz           1           8           4   1.0735008786252501E-011   1.6250119550189722E-010  0.20000000000000001        2.3068066861471064E-003   6.9838572423103640E-003
 graz           1           8           5   3.6230654653602197E-012   1.6250119550189722E-010  0.67500000000000004        2.3068066861471067E-004   6.9838572423103640E-003
 graz           1           8           6   4.2940035145010006E-011   1.6250119550189722E-010  0.80000000000000004        2.3068066861471064E-003   6.9838572423103640E-003
 prey           1          23           1   5.5394422277738901E-011
 prey           1          23           2   5.7970907034843046E-011
 prey           1          23           3   6.4420383767956849E-011
 prey           1          23           4   6.4420383767956849E-011
 prey           1          23           5   4.3478180276132288E-012
 prey           1          23           6   5.1529695142082707E-011
 pred           1          23           7   9.7181265791881230E-011
 pred           1          23           8   1.3214795815876832E-010
 mort           1           1   1.4679166654956910E-009   1.6534391534391535E-006  0.38485929689002951        2.3068066861471051E-003   0.0000000000000000        0.0000000000000000       0.38485929689002951        5.3213570872529887E-006
 mort           1           2   1.4679166654956910E-009   1.6534391534391535E-006  0.38485929689002951        2.3068066861471051E-003   0.0000000000000000        0.0000000000000000       0.38485929689002951        5.3213570872529887E-006
 mort           1           3   1.4679166654956910E-009   1.6534391534391535E-006  0.38485929689002951        2.3068066861471051E-003   0.0000000000000000        0.0000000000000000       0.38485929689002951        5.3213570872529887E-006
 mort           1           4   1.4679166654956910E-009   1.6534391534391535E-006  0.38485929689002951        2.3068066861471051E-003   0.0000000000000000        0.0000000000000000       0.38485929689002951        5.3213570872529887E-006
 mort           1           5   1.4679166654956844E-010   1.6534391534391535E-006  0.38485929689002951        2.3068066861470948E-004   0.0000000000000000        0.0000000000000000       0.38485929689002951        5.3213570872529411E-008
 mort           1           6   1.4679166654956910E-009   1.6534391534391535E-006  0.38485929689002951        2.3068066861471051E-003   0.0000000000000000        0.0000000000000000       0.38485929689002951        5.3213570872529887E-006
 mort           1           7   6.9943125755528995E-009   2.3148148148148148E-007  0.38485929689002951        6.2756710800496107E-002   1.4034552621709887E-009   9.2592592592592583E-007  0.38485929689002951        3.9384047504971050E-003
 mort           1           8   6.9943125755528995E-009   2.3148148148148148E-007  0.38485929689002951        6.2756710800496107E-002   1.4034552621709887E-009   9.2592592592592583E-007  0.38485929689002951        3.9384047504971050E-003
 graz           1           7           1   2.5627260711977840E-012   3.7628864493081420E-011  0.17200000000000001        8.8576616371911353E-004   2.2370024464726215E-003
 graz           1           7           2   2.6819226326488445E-012   3.7628864493081420E-011  0.18000000000000002        8.8576616371911353E-004   2.2370024464726215E-003
 graz           1           7           3   1.4899570181382467E-011   3.7628864493081420E-011   1.0000000000000000        8.8576616371911353E-004   2.2370024464726215E-003
 graz           1           7           4   1.4899570181382467E-011   3.7628864493081420E-011   1.0000000000000000        8.8576616371911353E-004   2.2370024464726215E-003
 graz           1           7           5   2.0114419744866330E-013   3.7628864493081420E-011  0.13500000000000001        8.8576616371911356E-005   2.2370024464726215E-003
 graz           1           7           6   2.3839312290211950E-012   3.7628864493081420E-011  0.16000000000000003        8.8576616371911353E-004   2.2370024464726215E-003
 graz           1           8           1   1.2812692570210223E-011   4.5105147391059829E-011  0.85999999999999999        8.8576616371911353E-004   2.6816570606596163E-003
 graz           1           8           2   1.3408631759522328E-011   4.5105147391059829E-011  0.90000000000000002        8.8576616371911353E-004   2.6816570606596163E-003
 graz           1           8           3   2.9796959465605176E-012   4.5105147391059829E-011  0.20000000000000001        8.8576616371911353E-004   2.6816570606596163E-003
 graz           1           8           4   2.9796959465605176E-012   4.5105147391059829E-011  0.20000000000000001        8.8576616371911353E-004   2.6816570606596163E-003
 graz           1           8           5   1.0056473819641745E-012   4.5105147391059829E-011  0.67500000000000004        8.8576616371911356E-005   2.6816570606596163E-003
 graz           1           8           6   1.1918783786242070E-011   4.5105147391059829E-011  0.80000000000000004        8.8576616371911353E-004   2.6816570606596163E-003
 prey           1          24           1   1.5375418641408007E-011
 prey           1          24           2   1.6090554392171171E-011
 prey           1          24           3   1.7879266127942985E-011
 prey           1          24           4   1.7879266127942985E-011
 prey           1          24           5   1.2067915794128378E-012
 prey           1          24           6   1.4302715015263265E-011
 pred           1          24           7   2.6971201942338539E-011
 pred           1          24           8   3.6680057102159969E-011
 mort           1           1   5.5870197376297120E-010   1.6534391534391535E-006  0.38148099077647574        8.8576616371911234E-004   0.0000000000000000        0.0000000000000000       0.38148099077647574        7.8458169678967332E-007
 mort           1           2   5.5870197376297120E-010   1.6534391534391535E-006  0.38148099077647574        8.8576616371911234E-004   0.0000000000000000        0.0000000000000000       0.38148099077647574        7.8458169678967332E-007
 mort           1           3   5.5870197376297120E-010   1.6534391534391535E-006  0.38148099077647574        8.8576616371911234E-004   0.0000000000000000        0.0000000000000000       0.38148099077647574        7.8458169678967332E-007
 mort           1           4   5.5870197376297120E-010   1.6534391534391535E-006  0.38148099077647574        8.8576616371911234E-004   0.0000000000000000        0.0000000000000000       0.38148099077647574        7.8458169678967332E-007
 mort           1           5   5.5870197376296443E-011   1.6534391534391535E-006  0.38148099077647574        8.8576616371910150E-005   0.0000000000000000        0.0000000000000000       0.38148099077647574        7.8458169678965406E-009
 mort           1           6   5.5870197376297120E-010   1.6534391534391535E-006  0.38148099077647574        8.8576616371911234E-004   0.0000000000000000        0.0000000000000000       0.38148099077647574        7.8458169678967332E-007
 mort           1           7   4.7774003463316200E-009   2.3148148148148148E-007  0.38148099077647574        4.5734186546705781E-002   7.3880710647201607E-010   9.2592592592592583E-007  0.38148099077647574        2.0916158190888842E-003
 mort           1           8   4.7774003463316200E-009   2.3148148148148148E-007  0.38148099077647574        4.5734186546705781E-002   7.3880710647201607E-010   9.2592592592592583E-007  0.38148099077647574        2.0916158190888842E-003
 graz           1           7           1   9.8688273757175115E-013   1.4490536940334053E-011  0.17200000000000001        5.6710569944827733E-004   1.4322254439566244E-003
 graz           1           7           2   1.0327842602495069E-012   1.4490536940334053E-011  0.18000000000000002        5.6710569944827733E-004   1.4322254439566244E-003
 graz           1           7           3   5.7376903347194834E-012   1.4490536940334053E-011   1.0000000000000000        5.6710569944827733E-004   1.4322254439566244E-003
 graz           1           7           4   5.7376903347194834E-012   1.4490536940334053E-011   1.0000000000000000        5.6710569944827733E-004   1.4322254439566244E-003
 graz           1           7           5   7.7458819518713037E-014   1.4490536940334053E-011  0.13500000000000001        5.6710569944827740E-005   1.4322254439566244E-003
 graz           1           7           6   9.1803045355511740E-013   1.4490536940334053E-011  0.16000000000000003        5.6710569944827733E-004   1.4322254439566244E-003
 graz           1           8           1   4.9341864825554774E-012   1.7370057646438034E-011  0.85999999999999999        5.6710569944827733E-004   1.7169125050796596E-003
 graz           1           8           2   5.1636835282557329E-012   1.7370057646438034E-011  0.90000000000000002        5.6710569944827733E-004   1.7169125050796596E-003
 graz           1           8           3   1.1474852285012740E-012   1.7370057646438034E-011  0.20000000000000001        5.6710569944827733E-004   1.7169125050796596E-003
 graz           1           8           4   1.1474852285012740E-012   1.7370057646438034E-011  0.20000000000000001        5.6710569944827733E-004   1.7169125050796596E-003
 graz           1           8           5   3.8727626461917999E-013   1.7370057646438034E-011  0.67500000000000004        5.6710569944827740E-005   1.7169125050796596E-003
 graz           1           8           6   4.5899409140050962E-012   1.7370057646438034E-011  0.80000000000000004        5.6710569944827733E-004   1.7169125050796596E-003
 prey           1          25           1   5.9210692201272283E-012
 prey           1          25           2   6.1964677885052398E-012
 prey           1          25           3   6.8851755632207577E-012
 prey           1          25           4   6.8851755632207577E-012
 prey           1          25           5   4.6473508413789299E-013
 prey           1          25           6   5.5079713675602132E-012
 pred           1          25           7   1.0386367043909211E-011
 pred           1          25           8   1.4125543162850682E-011
 mort           1           1   3.5069729231129355E-010   1.6534391534391535E-006  0.37400738979738546        5.6710569944827614E-004   0.0000000000000000        0.0000000000000000       0.37400738979738546        3.2160887434671851E-007
 mort           1           2   3.5069729231129355E-010   1.6534391534391535E-006  0.37400738979738546        5.6710569944827614E-004   0.0000000000000000        0.0000000000000000       0.37400738979738546        3.2160887434671851E-007
 mort           1           3   3.5069729231129355E-010   1.6534391534391535E-006  0.37400738979738546        5.6710569944827614E-004   0.0000000000000000        0.0000000000000000       0.37400738979738546        3.2160887434671851E-007
 mort           1           4   3.5069729231129355E-010   1.6534391534391535E-006  0.37400738979738546        5.6710569944827614E-004   0.0000000000000000        0.0000000000000000       0.37400738979738546        3.2160887434671851E-007
 mort           1           5   3.5069729231128694E-011   1.6534391534391535E-006  0.37400738979738546        5.6710569944826541E-005   0.0000000000000000        0.0000000000000000       0.37400738979738546        3.2160887434670634E-009
 mort           1           6   3.5069729231129355E-010   1.6534391534391535E-006  0.37400738979738546        5.6710569944827614E-004   0.0000000000000000        0.0000000000000000       0.37400738979738546        3.2160887434671851E-007
 mort           1           7   2.7013496908682771E-009   2.3148148148148148E-007  0.37400738979738546        2.8054025812965757E-002   2.7255039280906497E-010   9.2592592592592583E-007  0.37400738979738546        7.8702836431454896E-004
 mort           1           8   2.7013496908682771E-009   2.3148148148148148E-007  0.37400738979738546        2.8054025812965757E-002   2.7255039280906497E-010   9.2592592592592583E-007  0.37400738979738546        7.8702836431454896E-004
 graz           1           7           1   4.2615051329179337E-014   6.2572274495257223E-013  0.17200000000000001        1.4507937844585419E-004   3.6639797026500476E-004
 graz           1           7           2   4.4597146739838845E-014   6.2572274495257223E-013  0.18000000000000002        1.4507937844585419E-004   3.6639797026500476E-004
 graz           1           7           3   2.4776192633243802E-013   6.2572274495257223E-013   1.0000000000000000        1.4507937844585419E-004   3.6639797026500476E-004
 graz           1           7           4   2.4776192633243802E-013   6.2572274495257223E-013   1.0000000000000000        1.4507937844585419E-004   3.6639797026500476E-004
 graz           1           7           5   3.3447860054879136E-015   6.2572274495257223E-013  0.13500000000000001        1.4507937844585418E-005   3.6639797026500476E-004
 graz           1           7           6   3.9641908213190088E-014   6.2572274495257223E-013  0.16000000000000003        1.4507937844585419E-004   3.6639797026500476E-004
 graz           1           8           1   2.1307382761229487E-013   7.5009420127467764E-013  0.85999999999999999        1.4507937844585419E-004   4.3922781824482356E-004
 graz           1           8           2   2.2298423819891327E-013   7.5009420127467764E-013  0.90000000000000002        1.4507937844585419E-004   4.3922781824482356E-004
 graz           1           8           3   4.9552052933091838E-014   7.5009420127467764E-013  0.20000000000000001        1.4507937844585419E-004   4.3922781824482356E-004
 graz           1           8           4   4.9552052933091838E-014   7.5009420127467764E-013  0.20000000000000001        1.4507937844585419E-004   4.3922781824482356E-004
 graz           1           8           5   1.6723817864918495E-014   7.5009420127467764E-013  0.67500000000000004        1.4507937844585418E-005   4.3922781824482356E-004
 graz           1           8           6   1.9820821173236735E-013   7.5009420127467764E-013  0.80000000000000004        1.4507937844585419E-004   4.3922781824482356E-004
 prey           1          26           1   2.5568887894147422E-013
 prey           1          26           2   2.6758138493875211E-013
 prey           1          26           3   2.9731397926552984E-013
 prey           1          26           4   2.9731397926552984E-013
 prey           1          26           5   2.0068603870406409E-014
 prey           1          26           6   2.3785011994555746E-013
 pred           1          26           7   4.4849863904697929E-013
 pred           1          26           8   6.0998577160636047E-013
 mort           1           1   8.7954183417077010E-011   1.6534391534391535E-006  0.36665920891370285        1.4507937844585300E-004   0.0000000000000000        0.0000000000000000       0.36665920891370285        2.1048026050235035E-008
 mort           1           2   8.7954183417077010E-011   1.6534391534391535E-006  0.36665920891370285        1.4507937844585300E-004   0.0000000000000000        0.0000000000000000       0.36665920891370285        2.1048026050235035E-008
 mort           1           3   8.7954183417077010E-011   1.6534391534391535E-006  0.36665920891370285        1.4507937844585300E-004   0.0000000000000000        0.0000000000000000       0.36665920891370285        2.1048026050235035E-008
 mort           1           4   8.7954183417077010E-011   1.6534391534391535E-006  0.36665920891370285        1.4507937844585300E-004   0.0000000000000000        0.0000000000000000       0.36665920891370285        2.1048026050235035E-008
 mort           1           5   8.7954183417070454E-012   1.6534391534391535E-006  0.36665920891370285        1.4507937844584219E-005   0.0000000000000000        0.0000000000000000       0.36665920891370285        2.1048026050231900E-010
 mort           1           6   8.7954183417077010E-011   1.6534391534391535E-006  0.36665920891370285        1.4507937844585300E-004   0.0000000000000000        0.0000000000000000       0.36665920891370285        2.1048026050235035E-008
 mort           1           7   4.1782128262995249E-010   2.3148148148148148E-007  0.36665920891370285        4.8294982956144841E-003   7.9184991762295496E-012   9.2592592592592583E-007  0.36665920891370285        2.3324053787343207E-005
 mort           1           8   4.1782128262995249E-010   2.3148148148148148E-007  0.36665920891370285        4.8294982956144841E-003   7.9184991762295496E-012   9.2592592592592583E-007  0.36665920891370285        2.3324053787343207E-005
 graz           1           7           1   5.1367580961409136E-015   7.5423735882580659E-014  0.17200000000000001        4.7574619424420497E-005   1.2014970135637394E-004
 graz           1           7           2   5.3756770773567696E-015   7.5423735882580659E-014  0.18000000000000002        4.7574619424420497E-005   1.2014970135637394E-004
 graz           1           7           3   2.9864872651982057E-014   7.5423735882580659E-014   1.0000000000000000        4.7574619424420497E-005   1.2014970135637394E-004
 graz           1           7           4   2.9864872651982057E-014   7.5423735882580659E-014   1.0000000000000000        4.7574619424420497E-005   1.2014970135637394E-004
 graz           1           7           5   4.0317578080175779E-016   7.5423735882580659E-014  0.13500000000000001        4.7574619424420504E-006   1.2014970135637394E-004
 graz           1           7           6   4.7783796243171299E-015   7.5423735882580659E-014  0.16000000000000003        4.7574619424420497E-005   1.2014970135637394E-004
 graz           1           8           1   2.5684113632925279E-014   9.0417039562420091E-014  0.85999999999999999        4.7574619424420497E-005   1.4403216030743306E-004
 graz           1           8           2   2.6878723569340404E-014   9.0417039562420091E-014  0.90000000000000002        4.7574619424420497E-005   1.4403216030743306E-004
 graz           1           8           3   5.9730496820756464E-015   9.0417039562420091E-014  0.20000000000000001        4.7574619424420497E-005   1.4403216030743306E-004
 graz           1           8           4   5.9730496820756464E-015   9.0417039562420091E-014  0.20000000000000001        4.7574619424420497E-005   1.4403216030743306E-004
 graz           1           8           5   2.0159042677005307E-015   9.0417039562420091E-014  0.67500000000000004        4.7574619424420504E-006   1.4403216030743306E-004
 graz           1           8           6   2.3892198728302586E-014   9.0417039562420091E-014  0.80000000000000004        4.7574619424420497E-005   1.4403216030743306E-004
 prey           1          27           1   3.0820871729066191E-014
 prey           1          27           2   3.2254400646697175E-014
 prey           1          27           3   3.5837922334057700E-014
 prey           1          27           4   3.5837922334057700E-014
 prey           1          27           5   2.4190800485022886E-015
 prey           1          27           6   2.8670578352619716E-014
 pred           1          27           7   5.4061392474617924E-014
 pred           1          27           8   7.3528241586351209E-014
 mort           1           1   2.8079238812380611E-011   1.6534391534391535E-006  0.35696183887938859        4.7574619424419298E-005   0.0000000000000000        0.0000000000000000       0.35696183887938859        2.2633444133783340E-009
 mort           1           2   2.8079238812380611E-011   1.6534391534391535E-006  0.35696183887938859        4.7574619424419298E-005   0.0000000000000000        0.0000000000000000       0.35696183887938859        2.2633444133783340E-009
 mort           1           3   2.8079238812380611E-011   1.6534391534391535E-006  0.35696183887938859        4.7574619424419298E-005   0.0000000000000000        0.0000000000000000       0.35696183887938859        2.2633444133783340E-009
 mort           1           4   2.8079238812380611E-011   1.6534391534391535E-006  0.35696183887938859        4.7574619424419298E-005   0.0000000000000000        0.0000000000000000       0.35696183887938859        2.2633444133783340E-009
 mort           1           5   2.8079238812374239E-012   1.6534391534391535E-006  0.35696183887938859        4.7574619424408501E-006   0.0000000000000000        0.0000000000000000       0.35696183887938859        2.2633444133773068E-011
 mort           1           6   2.8079238812380611E-011   1.6534391534391535E-006  0.35696183887938859        4.7574619424419298E-005   0.0000000000000000        0.0000000000000000       0.35696183887938859        2.2633444133783340E-009
 mort           1           7   1.5177664253717329E-010   2.3148148148148148E-007  0.35696183887938859        1.8235203571054994E-003   1.0990545958819951E-012   9.2592592592592583E-007  0.35696183887938859        3.3252264927781678E-006
 mort           1           8   1.5177664253717329E-010   2.3148148148148148E-007  0.35696183887938859        1.8235203571054994E-003   1.0990545958819951E-012   9.2592592592592583E-007  0.35696183887938859        3.3252264927781678E-006
 graz           1           7           1   3.2383081125056840E-016   4.7548529872866883E-015  0.17200000000000001        9.2937287809786469E-006   2.3471312036361572E-005
 graz           1           7           2   3.3889270944826923E-016   4.7548529872866883E-015  0.18000000000000002        9.2937287809786469E-006   2.3471312036361572E-005
 graz           1           7           3   1.8827372747126065E-015   4.7548529872866883E-015   1.0000000000000000        9.2937287809786469E-006   2.3471312036361572E-005
 graz           1           7           4   1.8827372747126065E-015   4.7548529872866883E-015   1.0000000000000000        9.2937287809786469E-006   2.3471312036361572E-005
 graz           1           7           5   2.5416953208620188E-017   4.7548529872866883E-015  0.13500000000000001        9.2937287809786463E-007   2.3471312036361572E-005
 graz           1           7           6   3.0123796395401714E-016   4.7548529872866883E-015  0.16000000000000003        9.2937287809786469E-006   2.3471312036361572E-005
 graz           1           8           1   1.6192901297596756E-015   5.7004661254039741E-015  0.85999999999999999        9.2937287809786469E-006   2.8136763884412854E-005
 graz           1           8           2   1.6946059497484976E-015   5.7004661254039741E-015  0.90000000000000002        9.2937287809786469E-006   2.8136763884412854E-005
 graz           1           8           3   3.7657909994411060E-016   5.7004661254039741E-015  0.20000000000000001        9.2937287809786469E-006   2.8136763884412854E-005
 graz           1           8           4   3.7657909994411060E-016   5.7004661254039741E-015  0.20000000000000001        9.2937287809786469E-006   2.8136763884412854E-005
 graz           1           8           5   1.2709544623113732E-016   5.7004661254039741E-015  0.67500000000000004        9.2937287809786463E-007   2.8136763884412854E-005
 graz           1           8           6   1.5063163997764424E-015   5.7004661254039741E-015  0.80000000000000004        9.2937287809786469E-006   2.8136763884412854E-005
 prey           1          28           1   1.9431209410102442E-015
 prey           1          28           2   2.0334986591967667E-015
 prey           1          28           3   2.2593163746567170E-015
 prey           1          28           4   2.2593163746567170E-015
 prey           1          28           5   1.5251239943975749E-016
 prey           1          28           6   1.8075543637304597E-015
 pred           1          28           7   3.4081310146847604E-015
 pred           1          28           8   4.6356887203120020E-015
 mort           1           1   5.3680023598537877E-012   1.6534391534391535E-006  0.34932887582050998        9.2937287809774475E-006   0.0000000000000000        0.0000000000000000       0.34932887582050998        8.6373394654368549E-011
 mort           1           2   5.3680023598537877E-012   1.6534391534391535E-006  0.34932887582050998        9.2937287809774475E-006   0.0000000000000000        0.0000000000000000       0.34932887582050998        8.6373394654368549E-011
 mort           1           3   5.3680023598537877E-012   1.6534391534391535E-006  0.34932887582050998        9.2937287809774475E-006   0.0000000000000000        0.0000000000000000       0.34932887582050998        8.6373394654368549E-011
 mort           1           4   5.3680023598537877E-012   1.6534391534391535E-006  0.34932887582050998        9.2937287809774475E-006   0.0000000000000000        0.0000000000000000       0.34932887582050998        8.6373394654368549E-011
 mort           1           5   5.3680023598475479E-013   1.6534391534391535E-006  0.34932887582050998        9.2937287809666459E-007   0.0000000000000000        0.0000000000000000       0.34932887582050998        8.6373394654167777E-013
 mort           1           6   5.3680023598537877E-012   1.6534391534391535E-006  0.34932887582050998        9.2937287809774475E-006   0.0000000000000000        0.0000000000000000       0.34932887582050998        8.6373394654368549E-011
 mort           1           7   4.8761665985321506E-011   2.3148148148148148E-007  0.34932887582050998        6.0156702476147283E-004   1.1705198286451332E-013   9.2592592592592583E-007  0.34932887582050998        3.6188288528037044E-007
 mort           1           8   4.8761665985321506E-011   2.3148148148148148E-007  0.34932887582050998        6.0156702476147283E-004   1.1705198286451332E-013   9.2592592592592583E-007  0.34932887582050998        3.6188288528037044E-007
 graz           1           7           1   1.3872155619881260E-017   2.0368679661633788E-016  0.17200000000000001        9.3153060231372337E-007   2.3525805361433081E-006
 graz           1           7           2   1.4517372160340855E-017   2.0368679661633788E-016  0.18000000000000002        9.3153060231372337E-007   2.3525805361433081E-006
 graz           1           7           3   8.0652067557449177E-017   2.0368679661633788E-016   1.0000000000000000        9.3153060231372337E-007   2.3525805361433081E-006
 graz           1           7           4   8.0652067557449177E-017   2.0368679661633788E-016   1.0000000000000000        9.3153060231372337E-007   2.3525805361433081E-006
 graz           1           7           5   1.0888029120255641E-018   2.0368679661633788E-016  0.13500000000000001        9.3153060231372350E-008   2.3525805361433081E-006
 graz           1           7           6   1.2904330809191871E-017   2.0368679661633788E-016  0.16000000000000003        9.3153060231372337E-007   2.3525805361433081E-006
 graz           1           8           1   6.9419737264789276E-017   2.4438169135947617E-016  0.85999999999999999        9.3153060231372337E-007   2.8202088985047973E-006
 graz           1           8           2   7.2648562253849249E-017   2.4438169135947617E-016  0.90000000000000002        9.3153060231372337E-007   2.8202088985047973E-006
 graz           1           8           3   1.6144124945299829E-017   2.4438169135947617E-016  0.20000000000000001        9.3153060231372337E-007   2.8202088985047973E-006
 graz           1           8           4   1.6144124945299829E-017   2.4438169135947617E-016  0.20000000000000001        9.3153060231372337E-007   2.8202088985047973E-006
 graz           1           8           5   5.4486421690386940E-018   2.4438169135947617E-016  0.67500000000000004        9.3153060231372350E-008   2.8202088985047973E-006
 graz           1           8           6   6.4576499781199316E-017   2.4438169135947617E-016  0.80000000000000004        9.3153060231372337E-007   2.8202088985047973E-006
 prey           1          29           1   8.3291892884670540E-017
 prey           1          29           2   8.7165934414190104E-017
 prey           1          29           3   9.6796192502749006E-017
 prey           1          29           4   9.6796192502749006E-017
 prey           1          29           5   6.5374450810642579E-018
 prey           1          29           6   7.7480830590391183E-017
 pred           1          29           7   1.4599637269249450E-016
 pred           1          29           8   1.9873417807664092E-016
 mort           1           1   5.2912920016671903E-013   1.6534391534391535E-006  0.34353926695096121        9.3153060231252333E-007   0.0000000000000000        0.0000000000000000       0.34353926695096121        8.6774926304473245E-013
 mort           1           2   5.2912920016671903E-013   1.6534391534391535E-006  0.34353926695096121        9.3153060231252333E-007   0.0000000000000000        0.0000000000000000       0.34353926695096121        8.6774926304473245E-013
 mort           1           3   5.2912920016671903E-013   1.6534391534391535E-006  0.34353926695096121        9.3153060231252333E-007   0.0000000000000000        0.0000000000000000       0.34353926695096121        8.6774926304473245E-013
 mort           1           4   5.2912920016671903E-013   1.6534391534391535E-006  0.34353926695096121        9.3153060231252333E-007   0.0000000000000000        0.0000000000000000       0.34353926695096121        8.6774926304473245E-013
 mort           1           5   5.2912920016058447E-014   1.6534391534391535E-006  0.34353926695096121        9.3153060230172356E-008   0.0000000000000000        0.0000000000000000       0.34353926695096121        8.6774926302461191E-015
 mort           1           6   5.2912920016671903E-013   1.6534391534391535E-006  0.34353926695096121        9.3153060231252333E-007   0.0000000000000000        0.0000000000000000       0.34353926695096121        8.6774926304473245E-013
 mort           1           7   2.0907721669198646E-011   2.3148148148148148E-007  0.34353926695096121        2.6263830216360646E-004   2.1941623242529776E-014   9.2592592592592583E-007  0.34353926695096121        6.8978877763381855E-008
 mort           1           8   2.0907721669198646E-011   2.3148148148148148E-007  0.34353926695096121        2.6263830216360646E-004   2.1941623242529776E-014   9.2592592592592583E-007  0.34353926695096121        6.8978877763381855E-008
 graz           1           7           1   3.8861926944423989E-019   5.7061509591943467E-018  0.17200000000000001        1.1041949366346805E-007   2.7886443124708854E-007
 graz           1           7           2   4.0669458430211156E-019   5.7061509591943467E-018  0.18000000000000002        1.1041949366346805E-007   2.7886443124708854E-007
 graz           1           7           3   2.2594143572339524E-018   5.7061509591943467E-018   1.0000000000000000        1.1041949366346805E-007   2.7886443124708854E-007
 graz           1           7           4   2.2594143572339524E-018   5.7061509591943467E-018   1.0000000000000000        1.1041949366346805E-007   2.7886443124708854E-007
 graz           1           7           5   3.0502093822658370E-020   5.7061509591943467E-018  0.13500000000000001        1.1041949366346806E-008   2.7886443124708854E-007
 graz           1           7           6   3.6150629715743247E-019   5.7061509591943467E-018  0.16000000000000003        1.1041949366346805E-007   2.7886443124708854E-007
 graz           1           8           1   1.9575841962404157E-018   6.8913792489742550E-018  0.85999999999999999        1.1041949366346805E-007   3.3429501706614957E-007
 graz           1           8           2   2.0486346239725282E-018   6.8913792489742550E-018  0.90000000000000002        1.1041949366346805E-007   3.3429501706614957E-007
 graz           1           8           3   4.5525213866056175E-019   6.8913792489742550E-018  0.20000000000000001        1.1041949366346805E-007   3.3429501706614957E-007
 graz           1           8           4   4.5525213866056175E-019   6.8913792489742550E-018  0.20000000000000001        1.1041949366346805E-007   3.3429501706614957E-007
 graz           1           8           5   1.5364759679793965E-019   6.8913792489742550E-018  0.67500000000000004        1.1041949366346806E-008   3.3429501706614957E-007
 graz           1           8           6   1.8210085546422470E-018   6.8913792489742550E-018  0.80000000000000004        1.1041949366346805E-007   3.3429501706614957E-007
 prey           1          30           1   2.3462034656846555E-018
 prey           1          30           2   2.4553292082746399E-018
 prey           1          30           3   2.7146664958945141E-018
 prey           1          30           4   2.7146664958945141E-018
 prey           1          30           5   1.8414969062059802E-019
 prey           1          30           6   2.1825148517996794E-018
 pred           1          30           7   4.0899918694649002E-018
 pred           1          30           8   5.6041538269115159E-018
 mort           1           1   6.1925627125673235E-014   1.6534391534391535E-006  0.33918484901009172        1.1041949366226805E-007   0.0000000000000000        0.0000000000000000       0.33918484901009172        1.2192464580631654E-014
 mort           1           2   6.1925627125673235E-014   1.6534391534391535E-006  0.33918484901009172        1.1041949366226805E-007   0.0000000000000000        0.0000000000000000       0.33918484901009172        1.2192464580631654E-014
 mort           1           3   6.1925627125673235E-014   1.6534391534391535E-006  0.33918484901009172        1.1041949366226805E-007   0.0000000000000000        0.0000000000000000       0.33918484901009172        1.2192464580631654E-014
 mort           1           4   6.1925627125673235E-014   1.6534391534391535E-006  0.33918484901009172        1.1041949366226805E-007   0.0000000000000000        0.0000000000000000       0.33918484901009172        1.2192464580631654E-014
 mort           1           5   6.1925627119616368E-015   1.6534391534391535E-006  0.33918484901009172        1.1041949365146807E-008   0.0000000000000000        0.0000000000000000       0.33918484901009172        1.2192464578246597E-016
 mort           1           6   6.1925627125673235E-014   1.6534391534391535E-006  0.33918484901009172        1.1041949366226805E-007   0.0000000000000000        0.0000000000000000       0.33918484901009172        1.2192464580631654E-014
 mort           1           7   5.1330719490866896E-012   2.3148148148148148E-007  0.33918484901009172        6.5359862075298078E-005   1.3416367416899819E-015   9.2592592592592583E-007  0.33918484901009172        4.2719115705019884E-009
 mort           1           8   5.1330719490866896E-012   2.3148148148148148E-007  0.33918484901009172        6.5359862075298078E-005   1.3416367416899819E-015   9.2592592592592583E-007  0.33918484901009172        4.2719115705019884E-009
 graz           1           7           1   3.2240105710739499E-021   4.7338597077018956E-020  0.17200000000000001        1.0359675857305236E-008   2.6163361377624374E-008
 graz           1           7           2   3.3739645511239012E-021   4.7338597077018956E-020  0.18000000000000002        1.0359675857305236E-008   2.6163361377624374E-008
 graz           1           7           3   1.8744247506243892E-020   4.7338597077018956E-020   1.0000000000000000        1.0359675857305236E-008   2.6163361377624374E-008
 graz           1           7           4   1.8744247506243892E-020   4.7338597077018956E-020   1.0000000000000000        1.0359675857305236E-008   2.6163361377624374E-008
 graz           1           7           5   2.5304734133429255E-022   4.7338597077018956E-020  0.13500000000000001        1.0359675857305235E-009   2.6163361377624374E-008
 graz           1           7           6   2.9990796009990237E-021   4.7338597077018956E-020  0.16000000000000003        1.0359675857305236E-008   2.6163361377624374E-008
 graz           1           8           1   1.8384702030652873E-020   6.4720564416048341E-020  0.85999999999999999        1.0359675857305236E-008   3.1363918657991601E-008
 graz           1           8           2   1.9239804450683237E-020   6.4720564416048341E-020  0.90000000000000002        1.0359675857305236E-008   3.1363918657991601E-008
 graz           1           8           3   4.2755121001518311E-021   6.4720564416048341E-020  0.20000000000000001        1.0359675857305236E-008   3.1363918657991601E-008
 graz           1           8           4   4.2755121001518311E-021   6.4720564416048341E-020  0.20000000000000001        1.0359675857305236E-008   3.1363918657991601E-008
 graz           1           8           5   1.4429853338012428E-021   6.4720564416048341E-020  0.67500000000000004        1.0359675857305235E-009   3.1363918657991601E-008
 graz           1           8           6   1.7102048400607325E-020   6.4720564416048341E-020  0.80000000000000004        1.0359675857305236E-008   3.1363918657991601E-008
 prey           1          31           1   2.1608712601726823E-020
 prey           1          31           2   2.2613769001807138E-020
 prey           1          31           3   2.3019759606395724E-020
 prey           1          31           4   2.3019759606395724E-020
 prey           1          31           5   1.6960326751355354E-021
 prey           1          31           6   2.0101128001606347E-020
 pred           1          31           7   3.3930836835802691E-020
 pred           1          31           8   5.2631553952869043E-020
 mort           1           1   5.7911355645257436E-015   1.6534391534391535E-006  0.33808768132074951        1.0359675856105236E-008   0.0000000000000000        0.0000000000000000       0.33808768132074951        1.0732288384356976E-016
 mort           1           2   5.7911355645257436E-015   1.6534391534391535E-006  0.33808768132074951        1.0359675856105236E-008   0.0000000000000000        0.0000000000000000       0.33808768132074951        1.0732288384356976E-016
 mort           1           3   5.7911355645257436E-015   1.6534391534391535E-006  0.33808768132074951        1.0359675856105236E-008   0.0000000000000000        0.0000000000000000       0.33808768132074951        1.0732288384356976E-016
 mort           1           4   5.7911355645257436E-015   1.6534391534391535E-006  0.33808768132074951        1.0359675856105236E-008   0.0000000000000000        0.0000000000000000       0.33808768132074951        1.0732288384356976E-016
 mort           1           5   5.7911355584884629E-016   1.6534391534391535E-006  0.33808768132074951        1.0359675845305235E-009   0.0000000000000000        0.0000000000000000       0.33808768132074951        1.0732288361980074E-018
 mort           1           6   5.7911355645257436E-015   1.6534391534391535E-006  0.33808768132074951        1.0359675856105236E-008   0.0000000000000000        0.0000000000000000       0.33808768132074951        1.0732288384356976E-016
 mort           1           7   8.0219157192497661E-013   2.3148148148148148E-007  0.33808768132074951        1.0249783434386764E-005   3.2887811168716761E-017   9.2592592592592583E-007  0.33808768132074951        1.0505806045182933E-010
 mort           1           8   8.0219157192497661E-013   2.3148148148148148E-007  0.33808768132074951        1.0249783434386764E-005   3.2887811168716761E-017   9.2592592592592583E-007  0.33808768132074951        1.0505806045182933E-010
 graz           1           7           1   0.0000000000000000        0.0000000000000000       0.17200000000000001        6.9285868702851596E-010   1.2000000000000000E-008
 graz           1           7           2   0.0000000000000000        0.0000000000000000       0.18000000000000002        6.9285868702851596E-010   1.2000000000000000E-008
 graz           1           7           3   0.0000000000000000        0.0000000000000000        1.0000000000000000        6.9285868702851596E-010   1.2000000000000000E-008
 graz           1           7           4   0.0000000000000000        0.0000000000000000        1.0000000000000000        6.9285868702851596E-010   1.2000000000000000E-008
 graz           1           7           5   0.0000000000000000        0.0000000000000000       0.13500000000000001        6.9285868702851612E-011   1.2000000000000000E-008
 graz           1           7           6   0.0000000000000000        0.0000000000000000       0.16000000000000003        6.9285868702851596E-010   1.2000000000000000E-008
 graz           1           8           1   0.0000000000000000        0.0000000000000000       0.85999999999999999        6.9285868702851596E-010   1.2000000000000000E-008
 graz           1           8           2   0.0000000000000000        0.0000000000000000       0.90000000000000002        6.9285868702851596E-010   1.2000000000000000E-008
 graz           1           8           3   0.0000000000000000        0.0000000000000000       0.20000000000000001        6.9285868702851596E-010   1.2000000000000000E-008
 graz           1           8           4   0.0000000000000000        0.0000000000000000       0.20000000000000001        6.9285868702851596E-010   1.2000000000000000E-008
 graz           1           8           5   0.0000000000000000        0.0000000000000000       0.67500000000000004        6.9285868702851612E-011   1.2000000000000000E-008
 graz           1           8           6   0.0000000000000000        0.0000000000000000       0.80000000000000004        6.9285868702851596E-010   1.2000000000000000E-008
 prey           1          32           1   0.0000000000000000     
 prey           1          32           2   0.0000000000000000     
 prey           1          32           3   0.0000000000000000     
 prey           1          32           4   0.0000000000000000     
 prey           1          32           5   0.0000000000000000     
 prey           1          32           6   0.0000000000000000     
 pred           1          32           7   0.0000000000000000     
 pred           1          32           8   0.0000000000000000     
 mort           1           1   3.8484918236659399E-016   1.6534391534391535E-006  0.33593688042892467        6.9285868582851595E-010   0.0000000000000000        0.0000000000000000       0.33593688042892467        4.8005315852801820E-019
 mort           1           2   3.8484918236659399E-016   1.6534391534391535E-006  0.33593688042892467        6.9285868582851595E-010   0.0000000000000000        0.0000000000000000       0.33593688042892467        4.8005315852801820E-019
 mort           1           3   3.8484918236659399E-016   1.6534391534391535E-006  0.33593688042892467        6.9285868582851595E-010   0.0000000000000000        0.0000000000000000       0.33593688042892467        4.8005315852801820E-019
 mort           1           4   3.8484918236659399E-016   1.6534391534391535E-006  0.33593688042892467        6.9285868582851595E-010   0.0000000000000000        0.0000000000000000       0.33593688042892467        4.8005315852801820E-019
 mort           1           5   3.8484917636772125E-017   1.6534391534391535E-006  0.33593688042892467        6.9285867502851611E-011   0.0000000000000000        0.0000000000000000       0.33593688042892467        4.8005314356227087E-021
 mort           1           6   3.8484918236659399E-016   1.6534391534391535E-006  0.33593688042892467        6.9285868582851595E-010   0.0000000000000000        0.0000000000000000       0.33593688042892467        4.8005315852801820E-019
 mort           1           7   6.6051452544204919E-014   2.3148148148148148E-007  0.33593688042892467        8.4938963880014414E-007   2.2441291521896831E-019   9.2592592592592583E-007  0.33593688042892467        7.2146275850103937E-013
 mort           1           8   6.6051452544204919E-014   2.3148148148148148E-007  0.33593688042892467        8.4938963880014414E-007   2.2441291521896831E-019   9.2592592592592583E-007  0.33593688042892467        7.2146275850103937E-013
 graz           1           7           1   0.0000000000000000        0.0000000000000000       0.17200000000000001        4.6329278247006813E-011   1.2000000000000000E-008
 graz           1           7           2   0.0000000000000000        0.0000000000000000       0.18000000000000002        4.6329278247006813E-011   1.2000000000000000E-008
 graz           1           7           3   0.0000000000000000        0.0000000000000000        1.0000000000000000        4.6329278247006813E-011   1.2000000000000000E-008
 graz           1           7           4   0.0000000000000000        0.0000000000000000        1.0000000000000000        4.6329278247006813E-011   1.2000000000000000E-008
 graz           1           7           5   0.0000000000000000        0.0000000000000000       0.13500000000000001        4.6329278247006823E-012   1.2000000000000000E-008
 graz           1           7           6   0.0000000000000000        0.0000000000000000       0.16000000000000003        4.6329278247006813E-011   1.2000000000000000E-008
 graz           1           8           1   0.0000000000000000        0.0000000000000000       0.85999999999999999        4.6329278247006813E-011   1.2000000000000000E-008
 graz           1           8           2   0.0000000000000000        0.0000000000000000       0.90000000000000002        4.6329278247006813E-011   1.2000000000000000E-008
 graz           1           8           3   0.0000000000000000        0.0000000000000000       0.20000000000000001        4.6329278247006813E-011   1.2000000000000000E-008
 graz           1           8           4   0.0000000000000000        0.0000000000000000       0.20000000000000001        4.6329278247006813E-011   1.2000000000000000E-008
 graz           1           8           5   0.0000000000000000        0.0000000000000000       0.67500000000000004        4.6329278247006823E-012   1.2000000000000000E-008
 graz           1           8           6   0.0000000000000000        0.0000000000000000       0.80000000000000004        4.6329278247006813E-011   1.2000000000000000E-008
 prey           1          33           1   0.0000000000000000     
 prey           1          33           2   0.0000000000000000     
 prey           1          33           3   0.0000000000000000     
 prey           1          33           4   0.0000000000000000     
 prey           1          33           5   0.0000000000000000     
 prey           1          33           6   0.0000000000000000     
 pred           1          33           7   0.0000000000000000     
 pred           1          33           8   0.0000000000000000     
 mort           1           1   2.5433876722045327E-017   1.6534391534391535E-006  0.33202349835689526        4.6329277047006812E-011   0.0000000000000000        0.0000000000000000       0.33202349835689526        2.1464019116983122E-021
 mort           1           2   2.5433876722045327E-017   1.6534391534391535E-006  0.33202349835689526        4.6329277047006812E-011   0.0000000000000000        0.0000000000000000       0.33202349835689526        2.1464019116983122E-021
 mort           1           3   2.5433876722045327E-017   1.6534391534391535E-006  0.33202349835689526        4.6329277047006812E-011   0.0000000000000000        0.0000000000000000       0.33202349835689526        2.1464019116983122E-021
 mort           1           4   2.5433876722045327E-017   1.6534391534391535E-006  0.33202349835689526        4.6329277047006812E-011   0.0000000000000000        0.0000000000000000       0.33202349835689526        2.1464019116983122E-021
 mort           1           5   2.5433870793054287E-018   1.6534391534391535E-006  0.33202349835689526        4.6329266247006824E-012   0.0000000000000000        0.0000000000000000       0.33202349835689526        2.1464009109860458E-023
 mort           1           6   2.5433876722045327E-017   1.6534391534391535E-006  0.33202349835689526        4.6329277047006812E-011   0.0000000000000000        0.0000000000000000       0.33202349835689526        2.1464019116983122E-021
 mort           1           7   2.7286527935776753E-015   2.3148148148148148E-007  0.33202349835689526        3.5502843782418498E-008   3.8749968043802959E-022   9.2592592592592583E-007  0.33202349835689526        1.2604519166388118E-015
 mort           1           8   2.7286527935776753E-015   2.3148148148148148E-007  0.33202349835689526        3.5502843782418498E-008   3.8749968043802959E-022   9.2592592592592583E-007  0.33202349835689526        1.2604519166388118E-015
 graz           1           7           1   0.0000000000000000        0.0000000000000000       0.17200000000000001        1.7443484571536615E-012   1.2000000000000000E-008
 graz           1           7           2   0.0000000000000000        0.0000000000000000       0.18000000000000002        1.7443484571536615E-012   1.2000000000000000E-008
 graz           1           7           3   0.0000000000000000        0.0000000000000000        1.0000000000000000        1.7443484571536615E-012   1.2000000000000000E-008
 graz           1           7           4   0.0000000000000000        0.0000000000000000        1.0000000000000000        1.7443484571536615E-012   1.2000000000000000E-008
 graz           1           7           5   0.0000000000000000        0.0000000000000000       0.13500000000000001        1.7443484571536615E-013   1.2000000000000000E-008
 graz           1           7           6   0.0000000000000000        0.0000000000000000       0.16000000000000003        1.7443484571536615E-012   1.2000000000000000E-008
 graz           1           8           1   0.0000000000000000        0.0000000000000000       0.85999999999999999        1.7443484571536615E-012   1.2000000000000000E-008
 graz           1           8           2   0.0000000000000000        0.0000000000000000       0.90000000000000002        1.7443484571536615E-012   1.2000000000000000E-008
 graz           1           8           3   0.0000000000000000        0.0000000000000000       0.20000000000000001        1.7443484571536615E-012   1.2000000000000000E-008
 graz           1           8           4   0.0000000000000000        0.0000000000000000       0.20000000000000001        1.7443484571536615E-012   1.2000000000000000E-008
 graz           1           8           5   0.0000000000000000        0.0000000000000000       0.67500000000000004        1.7443484571536615E-013   1.2000000000000000E-008
 graz           1           8           6   0.0000000000000000        0.0000000000000000       0.80000000000000004        1.7443484571536615E-012   1.2000000000000000E-008
 prey           1          34           1   0.0000000000000000     
 prey           1          34           2   0.0000000000000000     
 prey           1          34           3   0.0000000000000000     
 prey           1          34           4   0.0000000000000000     
 prey           1          34           5   0.0000000000000000     
 prey           1          34           6   0.0000000000000000     
 pred           1          34           7   0.0000000000000000     
 pred           1          34           8   0.0000000000000000     
 mort           1           1   9.4186364267671121E-019   1.6534391534391535E-006  0.32656291845259267        1.7443472571536615E-012   0.0000000000000000        0.0000000000000000       0.32656291845259267        3.0427473535395019E-024
 mort           1           2   9.4186364267671121E-019   1.6534391534391535E-006  0.32656291845259267        1.7443472571536615E-012   0.0000000000000000        0.0000000000000000       0.32656291845259267        3.0427473535395019E-024
 mort           1           3   9.4186364267671121E-019   1.6534391534391535E-006  0.32656291845259267        1.7443472571536615E-012   0.0000000000000000        0.0000000000000000       0.32656291845259267        3.0427473535395019E-024
 mort           1           4   9.4186364267671121E-019   1.6534391534391535E-006  0.32656291845259267        1.7443472571536615E-012   0.0000000000000000        0.0000000000000000       0.32656291845259267        3.0427473535395019E-024
 mort           1           5   9.4185781119602451E-020   1.6534391534391535E-006  0.32656291845259267        1.7443364571536614E-013   0.0000000000000000        0.0000000000000000       0.32656291845259267        3.0427096757553872E-026
 mort           1           6   9.4186364267671121E-019   1.6534391534391535E-006  0.32656291845259267        1.7443472571536615E-012   0.0000000000000000        0.0000000000000000       0.32656291845259267        3.0427473535395019E-024
 mort           1           7   1.0806666191571274E-016   2.3148148148148148E-007  0.32656291845259267        1.4295804894763782E-009   6.1795996221647756E-025   9.2592592592592583E-007  0.32656291845259267        2.0437003758915212E-018
 mort           1           8   1.0806666191571274E-016   2.3148148148148148E-007  0.32656291845259267        1.4295804894763782E-009   6.1795996221647756E-025   9.2592592592592583E-007  0.32656291845259267        2.0437003758915212E-018
 graz           1           7           1   0.0000000000000000        0.0000000000000000       0.17200000000000001        4.0117189040682653E-014   1.2000000000000000E-008
 graz           1           7           2   0.0000000000000000        0.0000000000000000       0.18000000000000002        4.0117189040682653E-014   1.2000000000000000E-008
 graz           1           7           3   0.0000000000000000        0.0000000000000000        1.0000000000000000        4.0117189040682653E-014   1.2000000000000000E-008
 graz           1           7           4   0.0000000000000000        0.0000000000000000        1.0000000000000000        4.0117189040682653E-014   1.2000000000000000E-008
 graz           1           7           5   0.0000000000000000        0.0000000000000000       0.13500000000000001        4.0117189040682660E-015   1.2000000000000000E-008
 graz           1           7           6   0.0000000000000000        0.0000000000000000       0.16000000000000003        4.0117189040682653E-014   1.2000000000000000E-008
 graz           1           8           1   0.0000000000000000        0.0000000000000000       0.85999999999999999        4.0117189040682653E-014   1.2000000000000000E-008
 graz           1           8           2   0.0000000000000000        0.0000000000000000       0.90000000000000002        4.0117189040682653E-014   1.2000000000000000E-008
 graz           1           8           3   0.0000000000000000        0.0000000000000000       0.20000000000000001        4.0117189040682653E-014   1.2000000000000000E-008
 graz           1           8           4   0.0000000000000000        0.0000000000000000       0.20000000000000001        4.0117189040682653E-014   1.2000000000000000E-008
 graz           1           8           5   0.0000000000000000        0.0000000000000000       0.67500000000000004        4.0117189040682660E-015   1.2000000000000000E-008
 graz           1           8           6   0.0000000000000000        0.0000000000000000       0.80000000000000004        4.0117189040682653E-014   1.2000000000000000E-008
 prey           1          35           1   0.0000000000000000     
 prey           1          35           2   0.0000000000000000     
 prey           1          35           3   0.0000000000000000     
 prey           1          35           4   0.0000000000000000     
 prey           1          35           5   0.0000000000000000     
 prey           1          35           6   0.0000000000000000     
 pred           1          35           7   0.0000000000000000     
 pred           1          35           8   0.0000000000000000     
 mort           1           1   2.1184622937711562E-020   1.6534391534391535E-006  0.31938536875494972        4.0115989040682655E-014   0.0000000000000000        0.0000000000000000       0.31938536875494972        1.6092925767121709E-027
 mort           1           2   2.1184622937711562E-020   1.6534391534391535E-006  0.31938536875494972        4.0115989040682655E-014   0.0000000000000000        0.0000000000000000       0.31938536875494972        1.6092925767121709E-027
 mort           1           3   2.1184622937711562E-020   1.6534391534391535E-006  0.31938536875494972        4.0115989040682655E-014   0.0000000000000000        0.0000000000000000       0.31938536875494972        1.6092925767121709E-027
 mort           1           4   2.1184622937711562E-020   1.6534391534391535E-006  0.31938536875494972        4.0115989040682655E-014   0.0000000000000000        0.0000000000000000       0.31938536875494972        1.6092925767121709E-027
 mort           1           5   2.1178919627555226E-021   1.6534391534391535E-006  0.31938536875494972        4.0105189040682659E-015   0.0000000000000000        0.0000000000000000       0.31938536875494972        1.6084261879888924E-029
 mort           1           6   2.1184622937711562E-020   1.6534391534391535E-006  0.31938536875494972        4.0115989040682655E-014   0.0000000000000000        0.0000000000000000       0.31938536875494972        1.6092925767121709E-027
 mort           1           7   1.7849006988137122E-016   2.3148148148148148E-007  0.31938536875494972        2.4142530305852432E-009   1.7236807519162831E-024   9.2592592592592583E-007  0.31938536875494972        5.8286176956900314E-018
 mort           1           8   1.7849006988137122E-016   2.3148148148148148E-007  0.31938536875494972        2.4142530305852432E-009   1.7236807519162831E-024   9.2592592592592583E-007  0.31938536875494972        5.8286176956900314E-018
(PID.TID 0000.0001) totgC   -1.6153810683261266E+06  -5.2427321141288785E-08
(PID.TID 0000.0001) totgN    1.9116341248155629E+03   6.2042237668541516E-11
(PID.TID 0000.0001) totgP    2.0495314153844688E-11   6.6517705209250661E-25
(PID.TID 0000.0001) totgFe   2.9632485634248294E+01   9.6172467971979336E-13
(PID.TID 0000.0001) totgSi   6.9805612479460523E-11   2.2655467088748735E-24
(PID.TID 0000.0001) totgA   -6.1425433023082593E+05  -1.9935673176366092E-08
(PID.TID 0000.0001) totgO   -3.0626257950534024E+06  -9.9397763933954543E-08
 fe   3.2302989800394695E-006
(PID.TID 0000.0001) // =======================================================
(PID.TID 0000.0001) // Begin MONITOR dynamic field statistics
(PID.TID 0000.0001) // =======================================================
(PID.TID 0000.0001) %MON time_tsnumber                =                     1
(PID.TID 0000.0001) %MON time_secondsf                =   3.6000000000000000E+03
(PID.TID 0000.0001) %MON dynstat_eta_max              =   0.0000000000000000E+00
(PID.TID 0000.0001) %MON dynstat_eta_min              =   0.0000000000000000E+00
(PID.TID 0000.0001) %MON dynstat_eta_mean             =   0.0000000000000000E+00
(PID.TID 0000.0001) %MON dynstat_eta_sd               =   0.0000000000000000E+00
(PID.TID 0000.0001) %MON dynstat_eta_del2             =   0.0000000000000000E+00
(PID.TID 0000.0001) %MON dynstat_uvel_max             =   0.0000000000000000E+00
(PID.TID 0000.0001) %MON dynstat_uvel_min             =   0.0000000000000000E+00
(PID.TID 0000.0001) %MON dynstat_uvel_mean            =   0.0000000000000000E+00
(PID.TID 0000.0001) %MON dynstat_uvel_sd              =   0.0000000000000000E+00
(PID.TID 0000.0001) %MON dynstat_uvel_del2            =   0.0000000000000000E+00
(PID.TID 0000.0001) %MON dynstat_vvel_max             =   0.0000000000000000E+00
(PID.TID 0000.0001) %MON dynstat_vvel_min             =   0.0000000000000000E+00
(PID.TID 0000.0001) %MON dynstat_vvel_mean            =   0.0000000000000000E+00
(PID.TID 0000.0001) %MON dynstat_vvel_sd              =   0.0000000000000000E+00
(PID.TID 0000.0001) %MON dynstat_vvel_del2            =   0.0000000000000000E+00
(PID.TID 0000.0001) %MON dynstat_wvel_max             =   0.0000000000000000E+00
(PID.TID 0000.0001) %MON dynstat_wvel_min             =   0.0000000000000000E+00
(PID.TID 0000.0001) %MON dynstat_wvel_mean            =   0.0000000000000000E+00
(PID.TID 0000.0001) %MON dynstat_wvel_sd              =   0.0000000000000000E+00
(PID.TID 0000.0001) %MON dynstat_wvel_del2            =   0.0000000000000000E+00
(PID.TID 0000.0001) %MON dynstat_theta_max            =   8.2824962465671614E+00
(PID.TID 0000.0001) %MON dynstat_theta_min            =   1.5167006338840423E+00
(PID.TID 0000.0001) %MON dynstat_theta_mean           =   2.8239040467417342E+00
(PID.TID 0000.0001) %MON dynstat_theta_sd             =   1.3643285852844826E+00
(PID.TID 0000.0001) %MON dynstat_theta_del2           =   0.0000000000000000E+00
(PID.TID 0000.0001) %MON dynstat_salt_max             =   3.5000000000000000E+01
(PID.TID 0000.0001) %MON dynstat_salt_min             =   3.5000000000000000E+01
(PID.TID 0000.0001) %MON dynstat_salt_mean            =   3.4999999999999986E+01
(PID.TID 0000.0001) %MON dynstat_salt_sd              =   1.4210854715202004E-14
(PID.TID 0000.0001) %MON dynstat_salt_del2            =   0.0000000000000000E+00
(PID.TID 0000.0001) %MON dynstat_sst_max              =   8.2824962465671614E+00
(PID.TID 0000.0001) %MON dynstat_sst_min              =   8.2824962465671614E+00
(PID.TID 0000.0001) %MON dynstat_sst_mean             =   8.2824962465671614E+00
(PID.TID 0000.0001) %MON dynstat_sst_sd               =   0.0000000000000000E+00
(PID.TID 0000.0001) %MON dynstat_sst_del2             =   0.0000000000000000E+00
(PID.TID 0000.0001) %MON dynstat_sss_max              =   3.5000000000000000E+01
(PID.TID 0000.0001) %MON dynstat_sss_min              =   3.5000000000000000E+01
(PID.TID 0000.0001) %MON dynstat_sss_mean             =   3.5000000000000000E+01
(PID.TID 0000.0001) %MON dynstat_sss_sd               =   0.0000000000000000E+00
(PID.TID 0000.0001) %MON dynstat_sss_del2             =   0.0000000000000000E+00
(PID.TID 0000.0001) %MON forcing_qnet_max             =   0.0000000000000000E+00
(PID.TID 0000.0001) %MON forcing_qnet_min             =   0.0000000000000000E+00
(PID.TID 0000.0001) %MON forcing_qnet_mean            =   0.0000000000000000E+00
(PID.TID 0000.0001) %MON forcing_qnet_sd              =   0.0000000000000000E+00
(PID.TID 0000.0001) %MON forcing_qnet_del2            =   0.0000000000000000E+00
(PID.TID 0000.0001) %MON forcing_qsw_max              =   0.0000000000000000E+00
(PID.TID 0000.0001) %MON forcing_qsw_min              =   0.0000000000000000E+00
(PID.TID 0000.0001) %MON forcing_qsw_mean             =   0.0000000000000000E+00
(PID.TID 0000.0001) %MON forcing_qsw_sd               =   0.0000000000000000E+00
(PID.TID 0000.0001) %MON forcing_qsw_del2             =   0.0000000000000000E+00
(PID.TID 0000.0001) %MON forcing_empmr_max            =   0.0000000000000000E+00
(PID.TID 0000.0001) %MON forcing_empmr_min            =   0.0000000000000000E+00
(PID.TID 0000.0001) %MON forcing_empmr_mean           =   0.0000000000000000E+00
(PID.TID 0000.0001) %MON forcing_empmr_sd             =   0.0000000000000000E+00
(PID.TID 0000.0001) %MON forcing_empmr_del2           =   0.0000000000000000E+00
(PID.TID 0000.0001) %MON forcing_fu_max               =   2.2645000219345093E+00
(PID.TID 0000.0001) %MON forcing_fu_min               =   2.2645000219345093E+00
(PID.TID 0000.0001) %MON forcing_fu_mean              =   2.2645000219345093E+00
(PID.TID 0000.0001) %MON forcing_fu_sd                =   0.0000000000000000E+00
(PID.TID 0000.0001) %MON forcing_fu_del2              =   0.0000000000000000E+00
(PID.TID 0000.0001) %MON forcing_fv_max               =  -4.1300000250339508E-01
(PID.TID 0000.0001) %MON forcing_fv_min               =  -4.1300000250339508E-01
(PID.TID 0000.0001) %MON forcing_fv_mean              =  -4.1300000250339503E-01
(PID.TID 0000.0001) %MON forcing_fv_sd                =   5.5511151231257827E-17
(PID.TID 0000.0001) %MON forcing_fv_del2              =   0.0000000000000000E+00
(PID.TID 0000.0001) %MON advcfl_uvel_max              =   0.0000000000000000E+00
(PID.TID 0000.0001) %MON advcfl_vvel_max              =   0.0000000000000000E+00
(PID.TID 0000.0001) %MON advcfl_wvel_max              =   0.0000000000000000E+00
(PID.TID 0000.0001) %MON advcfl_W_hf_max              =   0.0000000000000000E+00
(PID.TID 0000.0001) %MON pe_b_mean                    =   0.0000000000000000E+00
(PID.TID 0000.0001) %MON ke_max                       =   0.0000000000000000E+00
(PID.TID 0000.0001) %MON ke_mean                      =   0.0000000000000000E+00
(PID.TID 0000.0001) %MON ke_vol                       =   3.0811817830111180E+13
(PID.TID 0000.0001) %MON vort_r_min                   =   0.0000000000000000E+00
(PID.TID 0000.0001) %MON vort_r_max                   =   0.0000000000000000E+00
(PID.TID 0000.0001) %MON vort_a_mean                  =  -1.0312619976227577E-04
(PID.TID 0000.0001) %MON vort_a_sd                    =   2.8760747774580336E-12
(PID.TID 0000.0001) %MON vort_p_mean                  =  -1.0312619976227577E-04
(PID.TID 0000.0001) %MON vort_p_sd                    =   2.8760747774580336E-12
(PID.TID 0000.0001) %MON surfExpan_theta_mean         =   0.0000000000000000E+00
(PID.TID 0000.0001) %MON surfExpan_salt_mean          =   0.0000000000000000E+00
(PID.TID 0000.0001) // =======================================================
(PID.TID 0000.0001) // End MONITOR dynamic field statistics
(PID.TID 0000.0001) // =======================================================
(PID.TID 0000.0001) // =======================================================
(PID.TID 0000.0001) // Begin MONITOR ptracer field statistics
(PID.TID 0000.0001) // =======================================================
(PID.TID 0000.0001) %MON trcstat_ptracer01_max        =   2.2359128671461658E+03
(PID.TID 0000.0001) %MON trcstat_ptracer01_min        =   2.0729634917477115E+03
(PID.TID 0000.0001) %MON trcstat_ptracer01_mean       =   2.2089821818742753E+03
(PID.TID 0000.0001) %MON trcstat_ptracer01_sd         =   4.0007357904659727E+01
(PID.TID 0000.0001) %MON trcstat_ptracer01_del2       =   0.0000000000000000E+00
(PID.TID 0000.0001) %MON trcstat_ptracer02_max        =   3.5546341302535983E-01
(PID.TID 0000.0001) %MON trcstat_ptracer02_min        =   3.2881215971383002E-05
(PID.TID 0000.0001) %MON trcstat_ptracer02_mean       =   6.1771460753645381E-03
(PID.TID 0000.0001) %MON trcstat_ptracer02_sd         =   4.2126784875015651E-02
(PID.TID 0000.0001) %MON trcstat_ptracer02_del2       =   0.0000000000000000E+00
(PID.TID 0000.0001) %MON trcstat_ptracer03_max        =   2.5512437807553412E-01
(PID.TID 0000.0001) %MON trcstat_ptracer03_min        =   6.6231707518301720E-04
(PID.TID 0000.0001) %MON trcstat_ptracer03_mean       =   1.7428525304086433E-02
(PID.TID 0000.0001) %MON trcstat_ptracer03_sd         =   3.7069983211793757E-02
(PID.TID 0000.0001) %MON trcstat_ptracer03_del2       =   0.0000000000000000E+00
(PID.TID 0000.0001) %MON trcstat_ptracer04_max        =   3.4239070100867409E+01
(PID.TID 0000.0001) %MON trcstat_ptracer04_min        =   1.4549478409550012E+01
(PID.TID 0000.0001) %MON trcstat_ptracer04_mean       =   2.9892477290202851E+01
(PID.TID 0000.0001) %MON trcstat_ptracer04_sd         =   3.8825867600689667E+00
(PID.TID 0000.0001) %MON trcstat_ptracer04_del2       =   0.0000000000000000E+00
(PID.TID 0000.0001) %MON trcstat_ptracer05_max        =   2.3348065132591782E+00
(PID.TID 0000.0001) %MON trcstat_ptracer05_min        =   1.1949478585090685E+00
(PID.TID 0000.0001) %MON trcstat_ptracer05_mean       =   2.0209483029901127E+00
(PID.TID 0000.0001) %MON trcstat_ptracer05_sd         =   2.4242777957913994E-01
(PID.TID 0000.0001) %MON trcstat_ptracer05_del2       =   0.0000000000000000E+00
(PID.TID 0000.0001) %MON trcstat_ptracer06_max        =   9.3254103221541911E+01
(PID.TID 0000.0001) %MON trcstat_ptracer06_min        =   3.4057241183201796E+00
(PID.TID 0000.0001) %MON trcstat_ptracer06_mean       =   6.1182549265133822E+01
(PID.TID 0000.0001) %MON trcstat_ptracer06_sd         =   2.6240962155530628E+01
(PID.TID 0000.0001) %MON trcstat_ptracer06_del2       =   0.0000000000000000E+00
(PID.TID 0000.0001) %MON trcstat_ptracer07_max        =   8.7445339257953190E-04
(PID.TID 0000.0001) %MON trcstat_ptracer07_min        =   2.6059237067096833E-06
(PID.TID 0000.0001) %MON trcstat_ptracer07_mean       =   6.2668323244298278E-04
(PID.TID 0000.0001) %MON trcstat_ptracer07_sd         =   1.8501495933706061E-04
(PID.TID 0000.0001) %MON trcstat_ptracer07_del2       =   0.0000000000000000E+00
(PID.TID 0000.0001) %MON trcstat_ptracer08_max        =   1.2571123792450278E+01
(PID.TID 0000.0001) %MON trcstat_ptracer08_min        =   6.8085641504093320E-09
(PID.TID 0000.0001) %MON trcstat_ptracer08_mean       =   5.3438449285787959E-01
(PID.TID 0000.0001) %MON trcstat_ptracer08_sd         =   1.9405472253612714E+00
(PID.TID 0000.0001) %MON trcstat_ptracer08_del2       =   0.0000000000000000E+00
(PID.TID 0000.0001) %MON trcstat_ptracer09_max        =   1.6762085249178782E+00
(PID.TID 0000.0001) %MON trcstat_ptracer09_min        =   9.0781162360137685E-10
(PID.TID 0000.0001) %MON trcstat_ptracer09_mean       =   7.1255273082604875E-02
(PID.TID 0000.0001) %MON trcstat_ptracer09_sd         =   2.5875195137269219E-01
(PID.TID 0000.0001) %MON trcstat_ptracer09_del2       =   0.0000000000000000E+00
(PID.TID 0000.0001) %MON trcstat_ptracer10_max        =   1.0475936841012391E-01
(PID.TID 0000.0001) %MON trcstat_ptracer10_min        =   5.6738033199601368E-11
(PID.TID 0000.0001) %MON trcstat_ptracer10_mean       =   4.4532041799814981E-03
(PID.TID 0000.0001) %MON trcstat_ptracer10_sd         =   1.6171227203020295E-02
(PID.TID 0000.0001) %MON trcstat_ptracer10_del2       =   0.0000000000000000E+00
(PID.TID 0000.0001) %MON trcstat_ptracer11_max        =   1.0476660016527636E-04
(PID.TID 0000.0001) %MON trcstat_ptracer11_min        =   5.6738419154524883E-14
(PID.TID 0000.0001) %MON trcstat_ptracer11_mean       =   4.4536986280272634E-06
(PID.TID 0000.0001) %MON trcstat_ptracer11_sd         =   1.6172745644146810E-05
(PID.TID 0000.0001) %MON trcstat_ptracer11_del2       =   0.0000000000000000E+00
(PID.TID 0000.0001) %MON trcstat_ptracer12_max        =   1.2600047598469803E+00
(PID.TID 0000.0001) %MON trcstat_ptracer12_min        =   4.6372220034309346E-02
(PID.TID 0000.0001) %MON trcstat_ptracer12_mean       =   4.6868657984328671E-01
(PID.TID 0000.0001) %MON trcstat_ptracer12_sd         =   4.4398945981561733E-01
(PID.TID 0000.0001) %MON trcstat_ptracer12_del2       =   0.0000000000000000E+00
(PID.TID 0000.0001) %MON trcstat_ptracer13_max        =   1.6800085994538994E-01
(PID.TID 0000.0001) %MON trcstat_ptracer13_min        =   6.1849900746828498E-03
(PID.TID 0000.0001) %MON trcstat_ptracer13_mean       =   6.2494004545643980E-02
(PID.TID 0000.0001) %MON trcstat_ptracer13_sd         =   5.9197693366945893E-02
(PID.TID 0000.0001) %MON trcstat_ptracer13_del2       =   0.0000000000000000E+00
(PID.TID 0000.0001) %MON trcstat_ptracer14_max        =   1.0500039777779484E-02
(PID.TID 0000.0001) %MON trcstat_ptracer14_min        =   3.8643515920793749E-04
(PID.TID 0000.0001) %MON trcstat_ptracer14_mean       =   3.9057214611850047E-03
(PID.TID 0000.0001) %MON trcstat_ptracer14_sd         =   3.6999120608923624E-03
(PID.TID 0000.0001) %MON trcstat_ptracer14_del2       =   0.0000000000000000E+00
(PID.TID 0000.0001) %MON trcstat_ptracer15_max        =   5.9355211570115207E-01
(PID.TID 0000.0001) %MON trcstat_ptracer15_min        =   7.6295073475345490E-02
(PID.TID 0000.0001) %MON trcstat_ptracer15_mean       =   3.0109805524361943E-01
(PID.TID 0000.0001) %MON trcstat_ptracer15_sd         =   1.6092820711029726E-01
(PID.TID 0000.0001) %MON trcstat_ptracer15_del2       =   0.0000000000000000E+00
(PID.TID 0000.0001) %MON trcstat_ptracer16_max        =   1.0500068943839625E-05
(PID.TID 0000.0001) %MON trcstat_ptracer16_min        =   3.8669066693876488E-07
(PID.TID 0000.0001) %MON trcstat_ptracer16_mean       =   3.9060322305725059E-06
(PID.TID 0000.0001) %MON trcstat_ptracer16_sd         =   3.6997975436357552E-06
(PID.TID 0000.0001) %MON trcstat_ptracer16_del2       =   0.0000000000000000E+00
(PID.TID 0000.0001) %MON trcstat_ptracer17_max        =   8.2663727215446514E-02
(PID.TID 0000.0001) %MON trcstat_ptracer17_min        =   4.4977398415987921E-03
(PID.TID 0000.0001) %MON trcstat_ptracer17_mean       =   5.5128983051349924E-02
(PID.TID 0000.0001) %MON trcstat_ptracer17_sd         =   1.7472991571362763E-02
(PID.TID 0000.0001) %MON trcstat_ptracer17_del2       =   0.0000000000000000E+00
(PID.TID 0000.0001) %MON trcstat_ptracer18_max        =   2.3510737385083194E+03
(PID.TID 0000.0001) %MON trcstat_ptracer18_min        =   2.2763724203521574E+03
(PID.TID 0000.0001) %MON trcstat_ptracer18_mean       =   2.3233193975907056E+03
(PID.TID 0000.0001) %MON trcstat_ptracer18_sd         =   2.5001153437991494E+01
(PID.TID 0000.0001) %MON trcstat_ptracer18_del2       =   0.0000000000000000E+00
(PID.TID 0000.0001) %MON trcstat_ptracer19_max        =   2.9105314276750761E+02
(PID.TID 0000.0001) %MON trcstat_ptracer19_min        =   1.9290131055435148E+02
(PID.TID 0000.0001) %MON trcstat_ptracer19_mean       =   2.2202027353526520E+02
(PID.TID 0000.0001) %MON trcstat_ptracer19_sd         =   2.3972957287700982E+01
(PID.TID 0000.0001) %MON trcstat_ptracer19_del2       =   0.0000000000000000E+00
(PID.TID 0000.0001) %MON trcstat_ptracer20_max        =   2.9745290035607780E-01
(PID.TID 0000.0001) %MON trcstat_ptracer20_min        =   4.0113605583821630E-14
(PID.TID 0000.0001) %MON trcstat_ptracer20_mean       =   4.5297101602303170E-03
(PID.TID 0000.0001) %MON trcstat_ptracer20_sd         =   2.5750335453515266E-02
(PID.TID 0000.0001) %MON trcstat_ptracer20_del2       =   0.0000000000000000E+00
(PID.TID 0000.0001) %MON trcstat_ptracer21_max        =   2.9737094945723197E-01
(PID.TID 0000.0001) %MON trcstat_ptracer21_min        =   4.0113605583821630E-14
(PID.TID 0000.0001) %MON trcstat_ptracer21_mean       =   4.5288015957923814E-03
(PID.TID 0000.0001) %MON trcstat_ptracer21_sd         =   2.5743772314748434E-02
(PID.TID 0000.0001) %MON trcstat_ptracer21_del2       =   0.0000000000000000E+00
(PID.TID 0000.0001) %MON trcstat_ptracer22_max        =   2.9659905021897093E-01
(PID.TID 0000.0001) %MON trcstat_ptracer22_min        =   4.0040924398106895E-14
(PID.TID 0000.0001) %MON trcstat_ptracer22_mean       =   4.5247533279384050E-03
(PID.TID 0000.0001) %MON trcstat_ptracer22_sd         =   2.5704626628935780E-02
(PID.TID 0000.0001) %MON trcstat_ptracer22_del2       =   0.0000000000000000E+00
(PID.TID 0000.0001) %MON trcstat_ptracer23_max        =   2.9661486179854452E-01
(PID.TID 0000.0001) %MON trcstat_ptracer23_min        =   4.0040924398106895E-14
(PID.TID 0000.0001) %MON trcstat_ptracer23_mean       =   4.5252053095708794E-03
(PID.TID 0000.0001) %MON trcstat_ptracer23_sd         =   2.5706678607384587E-02
(PID.TID 0000.0001) %MON trcstat_ptracer23_del2       =   0.0000000000000000E+00
(PID.TID 0000.0001) %MON trcstat_ptracer24_max        =   2.9483444973047290E-02
(PID.TID 0000.0001) %MON trcstat_ptracer24_min        =   4.0040944930023462E-15
(PID.TID 0000.0001) %MON trcstat_ptracer24_mean       =   4.5068096717860165E-04
(PID.TID 0000.0001) %MON trcstat_ptracer24_sd         =   2.5573788813123858E-03
(PID.TID 0000.0001) %MON trcstat_ptracer24_del2       =   0.0000000000000000E+00
(PID.TID 0000.0001) %MON trcstat_ptracer25_max        =   2.9726437070476619E-01
(PID.TID 0000.0001) %MON trcstat_ptracer25_min        =   4.0113605583821630E-14
(PID.TID 0000.0001) %MON trcstat_ptracer25_mean       =   4.5283632678157094E-03
(PID.TID 0000.0001) %MON trcstat_ptracer25_sd         =   2.5738605847541080E-02
(PID.TID 0000.0001) %MON trcstat_ptracer25_del2       =   0.0000000000000000E+00
(PID.TID 0000.0001) %MON trcstat_ptracer26_max        =   4.5863323134059419E-01
(PID.TID 0000.0001) %MON trcstat_ptracer26_min        =   1.4291914494934817E-09
(PID.TID 0000.0001) %MON trcstat_ptracer26_mean       =   1.5981225189612092E-02
(PID.TID 0000.0001) %MON trcstat_ptracer26_sd         =   5.9112707250856440E-02
(PID.TID 0000.0001) %MON trcstat_ptracer26_del2       =   0.0000000000000000E+00
(PID.TID 0000.0001) %MON trcstat_ptracer27_max        =   4.5874353057794875E-01
(PID.TID 0000.0001) %MON trcstat_ptracer27_min        =   1.4291914494934817E-09
(PID.TID 0000.0001) %MON trcstat_ptracer27_mean       =   1.5982511675822868E-02
(PID.TID 0000.0001) %MON trcstat_ptracer27_sd         =   5.9120116364176335E-02
(PID.TID 0000.0001) %MON trcstat_ptracer27_del2       =   0.0000000000000000E+00
(PID.TID 0000.0001) %MON trcstat_ptracer28_max        =   1.3039717581350030E-01
(PID.TID 0000.0001) %MON trcstat_ptracer28_min        =   2.0056802791910815E-14
(PID.TID 0000.0001) %MON trcstat_ptracer28_mean       =   1.8112325567406868E-03
(PID.TID 0000.0001) %MON trcstat_ptracer28_sd         =   1.0621751424104329E-02
(PID.TID 0000.0001) %MON trcstat_ptracer28_del2       =   0.0000000000000000E+00
(PID.TID 0000.0001) %MON trcstat_ptracer29_max        =   1.2952692921738776E-01
(PID.TID 0000.0001) %MON trcstat_ptracer29_min        =   2.0056802791910815E-14
(PID.TID 0000.0001) %MON trcstat_ptracer29_mean       =   1.7960595564403491E-03
(PID.TID 0000.0001) %MON trcstat_ptracer29_sd         =   1.0539831699339780E-02
(PID.TID 0000.0001) %MON trcstat_ptracer29_del2       =   0.0000000000000000E+00
(PID.TID 0000.0001) %MON trcstat_ptracer30_max        =   5.0722126305795090E-02
(PID.TID 0000.0001) %MON trcstat_ptracer30_min        =   8.0081848796213773E-15
(PID.TID 0000.0001) %MON trcstat_ptracer30_mean       =   7.0028554009523723E-04
(PID.TID 0000.0001) %MON trcstat_ptracer30_sd         =   4.1162124606985498E-03
(PID.TID 0000.0001) %MON trcstat_ptracer30_del2       =   0.0000000000000000E+00
(PID.TID 0000.0001) %MON trcstat_ptracer31_max        =   5.0730786521258051E-02
(PID.TID 0000.0001) %MON trcstat_ptracer31_min        =   8.0081848796213773E-15
(PID.TID 0000.0001) %MON trcstat_ptracer31_mean       =   7.0018203211055492E-04
(PID.TID 0000.0001) %MON trcstat_ptracer31_sd         =   4.1156028644607507E-03
(PID.TID 0000.0001) %MON trcstat_ptracer31_del2       =   0.0000000000000000E+00
(PID.TID 0000.0001) %MON trcstat_ptracer32_max        =   9.2402477130184534E-03
(PID.TID 0000.0001) %MON trcstat_ptracer32_min        =   2.0020472465011731E-15
(PID.TID 0000.0001) %MON trcstat_ptracer32_mean       =   1.2866973099318261E-04
(PID.TID 0000.0001) %MON trcstat_ptracer32_sd         =   7.5024702269568875E-04
(PID.TID 0000.0001) %MON trcstat_ptracer32_del2       =   0.0000000000000000E+00
(PID.TID 0000.0001) %MON trcstat_ptracer33_max        =   1.2633989481171123E-01
(PID.TID 0000.0001) %MON trcstat_ptracer33_min        =   2.0056802791910815E-14
(PID.TID 0000.0001) %MON trcstat_ptracer33_mean       =   1.7413583806130159E-03
(PID.TID 0000.0001) %MON trcstat_ptracer33_sd         =   1.0243959720465967E-02
(PID.TID 0000.0001) %MON trcstat_ptracer33_del2       =   0.0000000000000000E+00
(PID.TID 0000.0001) // =======================================================
(PID.TID 0000.0001) // End MONITOR ptracers field statistics
(PID.TID 0000.0001) // =======================================================
 Computing Diagnostic #    156  TRAC01       Counter:       1   Parms: SMR     MR      
 Computing Diagnostic #    169  TRAC02       Counter:       1   Parms: SMR     MR      
 Computing Diagnostic #    182  TRAC03       Counter:       1   Parms: SMR     MR      
 Computing Diagnostic #    195  TRAC04       Counter:       1   Parms: SMR     MR      
 Computing Diagnostic #    208  TRAC05       Counter:       1   Parms: SMR     MR      
 Computing Diagnostic #    221  TRAC06       Counter:       1   Parms: SMR     MR      
 Computing Diagnostic #    234  TRAC07       Counter:       1   Parms: SMR     MR      
 Computing Diagnostic #    247  TRAC08       Counter:       1   Parms: SMR     MR      
 Computing Diagnostic #    260  TRAC09       Counter:       1   Parms: SMR     MR      
 Computing Diagnostic #    273  TRAC10       Counter:       1   Parms: SMR     MR      
 Computing Diagnostic #    286  TRAC11       Counter:       1   Parms: SMR     MR      
 Computing Diagnostic #    299  TRAC12       Counter:       1   Parms: SMR     MR      
 Computing Diagnostic #    312  TRAC13       Counter:       1   Parms: SMR     MR      
 Computing Diagnostic #    325  TRAC14       Counter:       1   Parms: SMR     MR      
 Computing Diagnostic #    338  TRAC15       Counter:       1   Parms: SMR     MR      
 Computing Diagnostic #    351  TRAC16       Counter:       1   Parms: SMR     MR      
 Computing Diagnostic #    364  TRAC17       Counter:       1   Parms: SMR     MR      
 Computing Diagnostic #    377  TRAC18       Counter:       1   Parms: SMR     MR      
 Computing Diagnostic #    390  TRAC19       Counter:       1   Parms: SMR     MR      
 Computing Diagnostic #    403  TRAC20       Counter:       1   Parms: SMR     MR      
 Computing Diagnostic #    416  TRAC21       Counter:       1   Parms: SMR     MR      
 Computing Diagnostic #    429  TRAC22       Counter:       1   Parms: SMR     MR      
 Computing Diagnostic #    442  TRAC23       Counter:       1   Parms: SMR     MR      
 Computing Diagnostic #    455  TRAC24       Counter:       1   Parms: SMR     MR      
 Computing Diagnostic #    468  TRAC25       Counter:       1   Parms: SMR     MR      
 Computing Diagnostic #    481  TRAC26       Counter:       1   Parms: SMR     MR      
 Computing Diagnostic #    494  TRAC27       Counter:       1   Parms: SMR     MR      
 Computing Diagnostic #    507  TRAC28       Counter:       1   Parms: SMR     MR      
 Computing Diagnostic #    520  TRAC29       Counter:       1   Parms: SMR     MR      
 Computing Diagnostic #    533  TRAC30       Counter:       1   Parms: SMR     MR      
 Computing Diagnostic #    589  PARF         Counter:       2   Parms: SM P    MR      
 Computing Diagnostic #    586  atten        Counter:       2   Parms: SM P    MR      
 Computing Diagnostic #    588  surfPAR      Counter:       2   Parms: SM P    MR      
 Computing Diagnostic #    587  exfPAR       Counter:       1   Parms: SM P    MR      
(PID.TID 0000.0001) // =======================================================
(PID.TID 0000.0001) // Begin MONITOR EXF statistics
(PID.TID 0000.0001) // =======================================================
(PID.TID 0000.0001) %MON exf_tsnumber                 =                     1
(PID.TID 0000.0001) %MON exf_time_sec                 =   3.6000000000000000E+03
(PID.TID 0000.0001) %MON exf_ustress_max              =   0.0000000000000000E+00
(PID.TID 0000.0001) %MON exf_ustress_min              =   0.0000000000000000E+00
(PID.TID 0000.0001) %MON exf_ustress_mean             =   0.0000000000000000E+00
(PID.TID 0000.0001) %MON exf_ustress_sd               =   0.0000000000000000E+00
(PID.TID 0000.0001) %MON exf_ustress_del2             =   0.0000000000000000E+00
(PID.TID 0000.0001) %MON exf_vstress_max              =   0.0000000000000000E+00
(PID.TID 0000.0001) %MON exf_vstress_min              =   0.0000000000000000E+00
(PID.TID 0000.0001) %MON exf_vstress_mean             =   0.0000000000000000E+00
(PID.TID 0000.0001) %MON exf_vstress_sd               =   0.0000000000000000E+00
(PID.TID 0000.0001) %MON exf_vstress_del2             =   0.0000000000000000E+00
(PID.TID 0000.0001) %MON exf_hflux_max                =   0.0000000000000000E+00
(PID.TID 0000.0001) %MON exf_hflux_min                =   0.0000000000000000E+00
(PID.TID 0000.0001) %MON exf_hflux_mean               =   0.0000000000000000E+00
(PID.TID 0000.0001) %MON exf_hflux_sd                 =   0.0000000000000000E+00
(PID.TID 0000.0001) %MON exf_hflux_del2               =   0.0000000000000000E+00
(PID.TID 0000.0001) %MON exf_sflux_max                =   0.0000000000000000E+00
(PID.TID 0000.0001) %MON exf_sflux_min                =   0.0000000000000000E+00
(PID.TID 0000.0001) %MON exf_sflux_mean               =   0.0000000000000000E+00
(PID.TID 0000.0001) %MON exf_sflux_sd                 =   0.0000000000000000E+00
(PID.TID 0000.0001) %MON exf_sflux_del2               =   0.0000000000000000E+00
(PID.TID 0000.0001) %MON exf_uwind_max                =   0.0000000000000000E+00
(PID.TID 0000.0001) %MON exf_uwind_min                =   0.0000000000000000E+00
(PID.TID 0000.0001) %MON exf_uwind_mean               =   0.0000000000000000E+00
(PID.TID 0000.0001) %MON exf_uwind_sd                 =   0.0000000000000000E+00
(PID.TID 0000.0001) %MON exf_uwind_del2               =   0.0000000000000000E+00
(PID.TID 0000.0001) %MON exf_vwind_max                =   0.0000000000000000E+00
(PID.TID 0000.0001) %MON exf_vwind_min                =   0.0000000000000000E+00
(PID.TID 0000.0001) %MON exf_vwind_mean               =   0.0000000000000000E+00
(PID.TID 0000.0001) %MON exf_vwind_sd                 =   0.0000000000000000E+00
(PID.TID 0000.0001) %MON exf_vwind_del2               =   0.0000000000000000E+00
(PID.TID 0000.0001) %MON exf_wspeed_max               =   0.0000000000000000E+00
(PID.TID 0000.0001) %MON exf_wspeed_min               =   0.0000000000000000E+00
(PID.TID 0000.0001) %MON exf_wspeed_mean              =   0.0000000000000000E+00
(PID.TID 0000.0001) %MON exf_wspeed_sd                =   0.0000000000000000E+00
(PID.TID 0000.0001) %MON exf_wspeed_del2              =   0.0000000000000000E+00
(PID.TID 0000.0001) %MON exf_evap_max                 =   0.0000000000000000E+00
(PID.TID 0000.0001) %MON exf_evap_min                 =   0.0000000000000000E+00
(PID.TID 0000.0001) %MON exf_evap_mean                =   0.0000000000000000E+00
(PID.TID 0000.0001) %MON exf_evap_sd                  =   0.0000000000000000E+00
(PID.TID 0000.0001) %MON exf_evap_del2                =   0.0000000000000000E+00
(PID.TID 0000.0001) // =======================================================
(PID.TID 0000.0001) // End MONITOR EXF statistics
(PID.TID 0000.0001) // =======================================================
 EXTERNAL_FIELDS_LOAD,         1 : iP,iLd,i0,i1=   12    1   12    1 ; Wght=  0.4986111111  0.5013888889
 mean surface dic   2073.3340705275914        35.000000000000000     
 limit           2           1           1  0.97194435984701011        8.2131029021145274E-002  0.77342621640977038       0.74723004824475181       0.74831468901983367        2.9343821764236991E-003  0.24875092880374255     
 chl2c           2           1           1  0.24365751324217066        1.1332926933672924E-006   1.0000000000000000     
 limit           2           1           2  0.97194435984701011        8.2131029021145274E-002   1.0000000000000000       0.74723004824475181       0.74831468901983367        2.9343821764236991E-003  0.24875092880374255     
 chl2c           2           1           2  0.23756797276002328        1.0766280586989281E-006   1.0000000000000000     
 limit           2           1           3  0.99020024965633735       0.20696833371756138        1.0000000000000000       0.97990911291444460       0.80335323742739306        2.2926914284240978E-003  0.19435407114418282     
 chl2c           2           1           3   8.7972497042804729E-002   1.5503304060100665E-006   1.0000000000000000     
 limit           2           1           4  0.99100955350738384       0.22161390401527742        1.0000000000000000       0.89792371908452828       0.89253038420534136       0.10746961579465866        0.0000000000000000     
 chl2c           2           1           4   8.8002149414166578E-002   1.6600353099507943E-006   1.0000000000000000     
 limit           2           1           5  0.97194435984701011        2.1880562063674266E-002   1.0000000000000000        1.0000000000000000        0.0000000000000000        0.0000000000000000        0.0000000000000000     
 chl2c           2           1           5   9.5949079701197690E-002   7.1706233742030804E-008   1.0000000000000000     
 limit           2           1           6  0.97742883819894288       0.10059822729506980        1.0000000000000000       0.80268207149242732       0.76397632277439098        2.7517842378945406E-003  0.23327189298771447     
 chl2c           2           1           6  0.21614229663524528        1.0989236290277899E-006   1.0000000000000000     
 consum   6.6985995929143190E-007   9.0116577320533678E-008
 reminPOC   5.4399607280617848E-008  0.45303542585659545        3.8580246913580245E-007  0.31124228707888074     
 reminPOSi   2.8166167016409286E-009  0.45303542585659545        7.7160493827160495E-008   8.0575050801482501E-002
 reminDOC   2.1139927913278121E-006   1.8704596391706445E-010
 limit           2           2           1  0.97191575225669113        8.1417201172674786E-002  0.77345667300879073       0.74724653731788837       0.74821218204335171        2.9363348209108095E-003  0.24885148313573741     
 chl2c           2           2           1  0.24734910559157045        1.1232730092699726E-006   1.0000000000000000     
 limit           2           2           2  0.97191575225669113        8.1417201172674786E-002   1.0000000000000000       0.74724653731788837       0.74821218204335171        2.9363348209108095E-003  0.24885148313573741     
 chl2c           2           2           2  0.24125935669413148        1.0671093588111577E-006   1.0000000000000000     
 limit           2           2           3  0.99019006922796926       0.20541231919881919        1.0000000000000000       0.97994774841510601       0.80327700105699384        2.2941721190411443E-003  0.19442882682396512     
 chl2c           2           2           3   8.9454982759802779E-002   1.5384211742047216E-006   1.0000000000000000     
 limit           2           2           4  0.99100020617944340       0.21997832477458296        1.0000000000000000       0.89794052161352911       0.89246747823389849       0.10753252176610145        0.0000000000000000     
 chl2c           2           2           4   8.9486185356396852E-002   1.6474876226594055E-006   1.0000000000000000     
 limit           2           2           5  0.97191575225669113        2.1678023279977591E-002   1.0000000000000000        1.0000000000000000        0.0000000000000000        0.0000000000000000        0.0000000000000000     
 chl2c           2           2           5   9.8336522334942569E-002   7.1031738961503269E-008   1.0000000000000000     
 limit           2           2           6  0.97740569298217739        9.9741336354051177E-002   1.0000000000000000       0.80270145759501954       0.76388084447413229        2.7536077951715436E-003  0.23336554773069615     
 chl2c           2           2           6  0.21980103901193060        1.0893983083757890E-006   1.0000000000000000     
 consum   6.6473822550186790E-007   8.9401177877187189E-008
 reminPOC   5.5252298679085100E-008  0.45296692725243548        3.8580246913580245E-007  0.31616868596761016     
 reminPOSi   2.8611950104360374E-009  0.45296692725243548        7.7160493827160495E-008   8.1862681587315966E-002
 reminDOC   2.1139440030778849E-006   1.9111407150154264E-010
 limit           2           3           1  0.97185471096009568        8.0512905647255620E-002  0.77371649208780924       0.74731038848964226       0.74785538689720010        2.9396533290903053E-003  0.24920495977370966     
 chl2c           2           3           1  0.25551083775169947        1.1103355097444538E-006   1.0000000000000000     
 limit           2           3           2  0.97185471096009568        8.0512905647255620E-002   1.0000000000000000       0.74731038848964226       0.74785538689720010        2.9396533290903053E-003  0.24920495977370966     
 chl2c           2           3           2  0.24943800168192604        1.0548187481876634E-006   1.0000000000000000     
 limit           2           3           3  0.99016834548822097       0.20343582368851126        1.0000000000000000       0.98008212138738449       0.80301506964851865        2.2965686205331181E-003  0.19468836173094822     
 chl2c           2           3           3   9.2752473379544884E-002   1.5222231100160477E-006   1.0000000000000000     
 limit           2           3           4  0.99098026011700968       0.21790010874167784        1.0000000000000000       0.89799492445585938       0.89225600541070904       0.10774399458929093        0.0000000000000000     
 chl2c           2           3           4   9.2786318871323839E-002   1.6299087485146526E-006   1.0000000000000000     
 limit           2           3           5  0.97185471096009568        2.1421773322550457E-002   1.0000000000000000        1.0000000000000000        0.0000000000000000        0.0000000000000000        0.0000000000000000     
 chl2c           2           3           5  0.10389708132495366        7.0162939811950611E-008   1.0000000000000000     
 limit           2           3           6  0.97735630610616187        9.8655374347461550E-002   1.0000000000000000       0.80277373139428754       0.76354972828846079        2.7566792716596602E-003  0.23369359243987958     
 chl2c           2           3           6  0.22796638570620437        1.0770894995058389E-006   1.0000000000000000     
 consum   6.5816004627520833E-007   8.8502650730972251E-008
 reminPOC   5.6563233167474196E-008  0.45277879910127156        3.8580246913580245E-007  0.32380469372926829     
 reminPOSi   2.9303697393322673E-009  0.45277879910127156        7.7160493827160495E-008   8.3876700713744895E-002
 reminDOC   2.1139765678576084E-006   1.9737131088315027E-010
 limit           2           4           1  0.97157117956889660        7.4383611733489577E-002  0.77864997208030473       0.74941173315668375       0.73576790243316781        3.1079948777848077E-003  0.26112410268904729     
 chl2c           2           4           1  0.32754690085108190        1.0205169013615709E-006   1.0000000000000000     
 limit           2           4           2  0.97157117956889660        7.4383611733489577E-002   1.0000000000000000       0.74941173315668375       0.73576790243316781        3.1079948777848077E-003  0.26112410268904729     
 chl2c           2           4           2  0.32202347935930242        9.6949114293019638E-007   1.0000000000000000     
 limit           2           4           3  0.99006741736687398       0.18988111781510797        1.0000000000000000       0.98466139352305104       0.79407474889582130        2.4221683570311097E-003  0.20350308274714760     
 chl2c           2           4           3  0.12237798075047328        1.4127698773555628E-006   1.0000000000000000     
 limit           2           4           4  0.99088759010594629       0.20362802694602722        1.0000000000000000       0.89969363126582125       0.88515587764821357       0.11484412235178644        0.0000000000000000     
 chl2c           2           4           4  0.12241872149366792        1.5141474429602359E-006   1.0000000000000000     
 limit           2           4           5  0.97157117956889660        1.9694620697789433E-002   1.0000000000000000        1.0000000000000000        0.0000000000000000        0.0000000000000000        0.0000000000000000     
 chl2c           2           4           5  0.16080169129309599        6.4173284592853196E-008   1.0000000000000000     
 limit           2           4           6  0.97712689256230778        9.1282042661960217E-002   1.0000000000000000       0.80518099211074712       0.75230417160212282        2.9134892126970011E-003  0.24478233918518022     
 chl2c           2           4           6  0.30183393378456996        9.9144935883050294E-007   1.0000000000000000     
 consum   6.2453534083716564E-007   8.3681193763941773E-008
 reminPOC   7.3562452166810942E-008  0.45044354995431624        3.8580246913580245E-007  0.42330248937011539     
 reminPOSi   3.8464026785889769E-009  0.45044354995431624        7.7160493827160495E-008  0.11066731607005770     
 reminDOC   2.1326128021064290E-006   2.8071134231731033E-010
 limit           2           5           1  0.97174123695811832        6.9411540241975545E-002  0.78453225372406032       0.75359764260712270       0.71307828356982528        3.4749357553693076E-003  0.28344678067480539     
 chl2c           2           5           1  0.37682569043867326        9.4439862133750079E-007   1.0000000000000000     
 limit           2           5           2  0.97174123695811832        6.9411540241975545E-002   1.0000000000000000       0.75359764260712270       0.71307828356982528        3.4749357553693076E-003  0.28344678067480539     
 chl2c           2           5           2  0.37226612420106464        8.9718062582156106E-007   1.0000000000000000     
 limit           2           5           3  0.99012795696647060       0.17867907815961750        1.0000000000000000       0.99337362109502092       0.77725214279013377        2.6977201415105509E-003  0.22005013706835566     
 chl2c           2           5           3  0.14365596457638427        1.3143110366850454E-006   1.0000000000000000     
 limit           2           5           4  0.99094317643993712       0.19180700357563252        1.0000000000000000       0.90290991836261525       0.87168056966790119       0.12831943033209883        0.0000000000000000     
 chl2c           2           5           4  0.14370747403133605        1.4082352468361036E-006   1.0000000000000000     
 limit           2           5           5  0.97174123695811832        1.8305863707016666E-002   1.0000000000000000        1.0000000000000000        0.0000000000000000        0.0000000000000000        0.0000000000000000     
 chl2c           2           5           5  0.21574010991116049        5.9153432512732071E-008   1.0000000000000000     
 limit           2           5           6  0.97726449411178817        8.5284493292915015E-002   1.0000000000000000       0.80989962957694395       0.73115752939547174        3.2559763174735039E-003  0.26558649428705472     
 chl2c           2           5           6  0.35524878836215901        9.1861808438101579E-007   1.0000000000000000     
 consum   6.0556639750024892E-007   8.1021082042484447E-008
 reminPOC   9.7381034473584321E-008  0.44670771297317602        3.8580246913580245E-007  0.56504876460614739     
 reminPOSi   5.1414628122315195E-009  0.44670771297317602        7.7160493827160495E-008  0.14916545228875799     
 reminDOC   2.1664589364349472E-006   4.0338264978196674E-010
 limit           2           6           1  0.97203620918501665       0.30592964338166034       0.78966359964704691       0.81799462384906618       0.46692408190620716        7.3154820655529414E-003  0.52576043602823996     
 chl2c           2           6           1  0.41197133503906785        3.4765199632477493E-006   1.0000000000000000     
 limit           2           6           2  0.97203620918501665       0.30592964338166034        1.0000000000000000       0.81799462384906618       0.46692408190620716        7.3154820655529414E-003  0.52576043602823996     
 chl2c           2           6           2  0.40826719740156203        3.3502741210158640E-006   1.0000000000000000     
 limit           2           6           3  0.99023293294747849       0.56247755650749931        1.0000000000000000        1.0000000000000000       0.59058732979963657        5.6184324682510452E-003  0.40379423773211243     
 chl2c           2           6           3  0.15930589343605875        2.8679992006575978E-006   1.0000000000000000     
 limit           2           6           4  0.99103956210204125       0.58376162419369748        1.0000000000000000       0.91447544677151782       0.72487008536997199       0.27512991463002795        0.0000000000000000     
 chl2c           2           6           4  0.15934726134905133        2.9191778204337261E-006   1.0000000000000000     
 limit           2           6           5  0.97203620918501665        9.9256552016747712E-002   1.0000000000000000        1.0000000000000000        0.0000000000000000        0.0000000000000000        0.0000000000000000     
 chl2c           2           6           5  0.26510929794533733        3.1840079931781500E-007   1.0000000000000000     
 limit           2           6           6  0.97750314789475989       0.35524226905551409        1.0000000000000000       0.87480510622755359       0.49818294261313834        6.8865119561755039E-003  0.49493054543068615     
 chl2c           2           6           6  0.39458521909094052        3.2406248608022934E-006   1.0000000000000000     
 consum   3.2450168750132846E-006   5.2952152193815856E-007
 reminPOC   1.4100067255446804E-007  0.44345420890964010        3.8580246913580245E-007  0.82415215803183750     
 reminPOSi   7.6493832409148471E-009  0.44345420890964010        7.7160493827160495E-008  0.22355410053725916     
 reminDOC   2.0354537024710005E-006   6.8528491331695009E-010
 limit           2           7           1  0.97232612747634417       0.44759274319760672       0.79456601290046402       0.94735377176810986        7.7035928978712878E-002   1.4040056228249127E-002  0.90892401479303797     
 chl2c           2           7           1  0.43837728437672296        3.2176350580503741E-006   1.0000000000000000     
 limit           2           7           2  0.97232612747634417       0.44759274319760672        1.0000000000000000       0.94735377176810986        7.7035928978712878E-002   1.4040056228249127E-002  0.90892401479303797     
 chl2c           2           7           2  0.43557159146650110        3.1483831764099781E-006   1.0000000000000000     
 limit           2           7           3  0.99033606992077305       0.70266893140537912        1.0000000000000000        1.0000000000000000       0.17289267268380790        1.2581891047466745E-002  0.81452543626872542     
 chl2c           2           7           3  0.17101159894062637        2.2681396932395530E-006   1.0000000000000000     
 limit           2           7           4  0.99113425760115514       0.72052172254794733        1.0000000000000000       0.73498972231150761       0.27253990943742368       0.72746009056257632        0.0000000000000000     
 chl2c           2           7           4  0.17103163490523168        2.2832692826176212E-006   1.0000000000000000     
 limit           2           7           5  0.97232612747634417       0.16844387931121751        1.0000000000000000        1.0000000000000000        0.0000000000000000        0.0000000000000000        0.0000000000000000     
 chl2c           2           7           5  0.31340350598365602        5.3540079782496300E-007   1.0000000000000000     
 limit           2           7           6  0.97773768508808445       0.50318539605742874        1.0000000000000000       0.96965213853986643        9.2394740535964859E-002   1.3806419205277809E-002  0.89379884025875733     
 chl2c           2           7           6  0.42500641634656672        3.0280258390248916E-006   1.0000000000000000     
 consum   4.1582352216512506E-006   7.1992853213557454E-007
 reminPOC   1.8494707702418582E-007  0.44034458589069997        3.8580246913580245E-007   1.0886538383957320     
 reminPOSi   1.0179152109326164E-008  0.44034458589069997        7.7160493827160495E-008  0.29958767647846590     
 reminDOC   1.9063952907542231E-006   9.7769438730390806E-010
 limit           2           8           1  0.97237110832458840       0.76968099838328530       0.80270969683718529       0.95383236559808238        5.4018396177915574E-002   1.1286490112212624E-002  0.93469511370987179     
 chl2c           2           8           1  0.45784817904446057        2.3960786858944176E-006   1.0000000000000000     
 limit           2           8           2  0.97237110832458840       0.76968099838328530        1.0000000000000000       0.95383236559808238        5.4018396177915574E-002   1.1286490112212624E-002  0.93469511370987179     
 chl2c           2           8           2  0.45582770186427091        2.3710013576429641E-006   1.0000000000000000     
 limit           2           8           3  0.99035206804447329       0.90695016056773825        1.0000000000000000        1.0000000000000000       0.12919583614736080        1.0389549379487571E-002  0.86041461447315160     
 chl2c           2           8           3  0.17979323874619646        1.5635898455659693E-006   1.0000000000000000     
 limit           2           8           4  0.99114894617701577       0.91403774938568516        1.0000000000000000       0.64355959747341429       0.22899852255425507       0.77100147744574499        0.0000000000000000     
 chl2c           2           8           4  0.17960478804385496        1.4820411652836528E-006   1.0000000000000000     
 limit           2           8           5  0.97237110832458840       0.45517478929128413        1.0000000000000000        1.0000000000000000        0.0000000000000000        0.0000000000000000        0.0000000000000000     
 chl2c           2           8           5  0.35926898416033226        1.1144180205025548E-006   1.0000000000000000     
 limit           2           8           6  0.97777407110329617       0.80684745860800089        1.0000000000000000       0.97176082301933620        6.5434364629311972E-002   1.1150286390567896E-002  0.92341534898012012     
 chl2c           2           8           6  0.44798581022556433        2.2918881644672207E-006   1.0000000000000000     
 consum   1.9823066289117441E-006   3.5616498494913955E-007
 reminPOC   1.9269783507743856E-007  0.43724331699910479        3.8580246913580245E-007   1.1423222931083550     
 reminPOSi   1.0826296250976305E-008  0.43724331699910479        7.7160493827160495E-008  0.32089409707991073     
 reminDOC   1.4381491092991244E-006   1.0581772736274180E-009
 limit           2           9           1  0.97241541567828527       0.85450263178002817       0.81023289864654524       0.96038947925755269        2.9470931895830135E-002   8.3936644655472365E-003  0.96213540363862260     
 chl2c           2           9           1  0.47101427616519109        1.5721092703950074E-006   1.0000000000000000     
 limit           2           9           2  0.97241541567828527       0.85450263178002817        1.0000000000000000       0.96038947925755269        2.9470931895830135E-002   8.3936644655472365E-003  0.96213540363862260     
 chl2c           2           9           2  0.46962245269859632        1.5680536211759290E-006   1.0000000000000000     
 limit           2           9           3  0.99036782568787407       0.94484132624091322        1.0000000000000000        1.0000000000000000        7.5979890259577507E-002   7.9914296392272263E-003  0.91602868010119531     
 chl2c           2           9           3  0.18602495025351926        1.0316419316999327E-006   1.0000000000000000     
 limit           2           9           4  0.99116341391909679       0.94920439754883712        1.0000000000000000       0.52021070453073193       0.16304734761236139       0.83695265238763850        0.0000000000000000     
 chl2c           2           9           4  0.18578385495395491        9.6566438668597546E-007   1.0000000000000000     
 limit           2           9           5  0.97241541567828527       0.59485369185675319        1.0000000000000000        1.0000000000000000        0.0000000000000000        0.0000000000000000        0.0000000000000000     
 chl2c           2           9           5  0.39667414327487821        9.9908023115971596E-007   1.0000000000000000     
 limit           2           9           6  0.97780991167009967       0.88011347051912381        1.0000000000000000       0.97327361048715444        3.6095588547139776E-002   8.3363708233906274E-003  0.95556804062946965     
 chl2c           2           9           6  0.46401231185895120        1.5313897066132137E-006   1.0000000000000000     
 consum   6.1735390562205293E-007   1.1188107933877344E-007
 reminPOC   1.9806867853503995E-007  0.43259492142402983        3.8580246913580245E-007   1.1867777205354531     
 reminPOSi   1.1341778621052080E-008  0.43259492142402983        7.7160493827160495E-008  0.33978542892961011     
 reminDOC   9.7286870623811580E-007   1.1266988952936683E-009
 limit           2          10           1  0.97269306816395951       0.86884807501554639       0.81876013351174237       0.96257476365807260        2.2422557768517148E-002   7.3586394850510524E-003  0.97021880274643191     
 chl2c           2          10           1  0.48022830055074550        1.0462446391653011E-006   1.0000000000000000     
 limit           2          10           2  0.97269306816395951       0.86884807501554639        1.0000000000000000       0.96257476365807260        2.2422557768517148E-002   7.3586394850510524E-003  0.97021880274643191     
 chl2c           2          10           2  0.47926145763928230        1.0446703462987832E-006   1.0000000000000000     
 limit           2          10           3  0.99046654984793792       0.95079266440246213        1.0000000000000000        1.0000000000000000        5.9173641644645100E-002   7.0819985098747240E-003  0.93374435984548021     
 chl2c           2          10           3  0.19042277639986147        6.8974579040027179E-007   1.0000000000000000     
 limit           2          10           4  0.99125405577533499       0.95470754896575050        1.0000000000000000       0.47479287753982280       0.13813583206350241       0.86186416793649756        0.0000000000000000     
 chl2c           2          10           4  0.19022031631606931        6.5368091422107644E-007   1.0000000000000000     
 limit           2          10           5  0.97269306816395951       0.62352038050481118        1.0000000000000000        1.0000000000000000        0.0000000000000000        0.0000000000000000        0.0000000000000000     
 chl2c           2          10           5  0.42579493859750828        7.6628169679398874E-007   1.0000000000000000     
 limit           2          10           6  0.97803449240745277       0.89225219356713237        1.0000000000000000       0.97386581685923923        2.7554556595886289E-002   7.3200087560909913E-003  0.96512543464802270     
 chl2c           2          10           6  0.47533472298453971        1.0278880584257577E-006   1.0000000000000000     
 consum   2.5515559926094903E-007   4.6263539158607487E-008
 reminPOC   1.9970531401947369E-007  0.42797915957378241        3.8580246913580245E-007   1.2094892060958795     
 reminPOSi   1.1633255746403441E-008  0.42797915957378241        7.7160493827160495E-008  0.35227648613435997     
 reminDOC   8.2620864314844309E-007   1.1664809559528911E-009
 limit           2          11           1  0.97304081584309332       0.87150360896965973       0.82702512696859753       0.96337738421717567        2.1180277154728179E-002   6.9907940002845500E-003  0.97182892884498728     
 chl2c           2          11           1  0.48658863147578091        6.9660484711409283E-007   1.0000000000000000     
 limit           2          11           2  0.97304081584309332       0.87150360896965973        1.0000000000000000       0.96337738421717567        2.1180277154728179E-002   6.9907940002845500E-003  0.97182892884498728     
 chl2c           2          11           2  0.48592078134165978        6.9570591944038613E-007   1.0000000000000000     
 limit           2          11           3  0.99059014583766636       0.95188089381407059        1.0000000000000000        1.0000000000000000        5.6144732332822300E-002   6.7410755916978062E-003  0.93711419207547997     
 chl2c           2          11           3  0.19348159605886009        4.6071660391703892E-007   1.0000000000000000     
 limit           2          11           4  0.99136753116179188       0.95571323269133490        1.0000000000000000       0.46346256943873587       0.13411346478428449       0.86588653521571557        0.0000000000000000     
 chl2c           2          11           4  0.19333559810568438        4.4364945718401253E-007   1.0000000000000000     
 limit           2          11           5  0.97304081584309332       0.62902231637461203        1.0000000000000000        1.0000000000000000        0.0000000000000000        0.0000000000000000        0.0000000000000000     
 chl2c           2          11           5  0.44772896654203986        5.6088584612516871E-007   1.0000000000000000     
 limit           2          11           6  0.97831573465392019       0.89449139210838624        1.0000000000000000       0.97430574471375986        2.6045521972174905E-002   6.9560461059727605E-003  0.96699843192185231     
 chl2c           2          11           6  0.48321008508158980        6.8809188743845414E-007   1.0000000000000000     
 consum   1.3355059867111286E-007   2.4187087206974246E-008
 reminPOC   2.0001139950871001E-007  0.42356653095965680        3.8580246913580245E-007   1.2239624938070353     
 reminPOSi   1.1842546632662550E-008  0.42356653095965680        7.7160493827160495E-008  0.36235016966891798     
 reminDOC   7.8491757187016721E-007   1.1940799185047589E-009
 limit           2          12           1  0.97337979598545143       0.87404612715617058       0.83456968255484354       0.96413939993298903        2.0041441635319835E-002   6.6337859521618065E-003  0.97332477241251836     
 chl2c           2          12           1  0.49093460117276466        4.6306906099362387E-007   1.0000000000000000     
 limit           2          12           2  0.97337979598545143       0.87404612715617058        1.0000000000000000       0.96413939993298903        2.0041441635319835E-002   6.6337859521618065E-003  0.97332477241251836     
 chl2c           2          12           2  0.49047726541797176        4.6259533614890436E-007   1.0000000000000000     
 limit           2          12           3  0.99071057034385812       0.95291892951652657        1.0000000000000000        1.0000000000000000        5.3345399893835542E-002   6.4083362853765025E-003  0.94024626382078791     
 chl2c           2          12           3  0.19558483434925875        3.0699011681818758E-007   1.0000000000000000     
 limit           2          12           4  0.99147809251018981       0.95667235941512774        1.0000000000000000       0.45207106550933540       0.13049791511052647       0.86950208488947356        0.0000000000000000     
 chl2c           2          12           4  0.19548042337414029        2.9895042945829536E-007   1.0000000000000000     
 limit           2          12           5  0.97337979598545143       0.63434971654680428        1.0000000000000000        1.0000000000000000        0.0000000000000000        0.0000000000000000        0.0000000000000000     
 chl2c           2          12           5  0.46372669226938207        3.9903090931287423E-007   1.0000000000000000     
 limit           2          12           6  0.97858984826693773       0.89663300710917238        1.0000000000000000       0.97472903089710361        2.4660507609011652E-002   6.6025173901324901E-003  0.96873697500085587     
 chl2c           2          12           6  0.48862296271288608        4.5916402763225381E-007   1.0000000000000000     
 consum   6.4394755506200892E-008   1.1653621848642988E-008
 reminPOC   2.0030962539882728E-007  0.41935252499267400        3.8580246913580245E-007   1.2381052171864964     
 reminPOSi   1.2047649283781914E-008  0.41935252499267400        7.7160493827160495E-008  0.37233002166981422     
 reminDOC   7.4473410322984661E-007   1.2209040114507597E-009
 limit           2          13           1  0.97364730013878298       0.87633175890268278       0.84193996470883337       0.96486469688474119        1.9107555030741942E-002   6.2955581040514061E-003  0.97459688686520662     
 chl2c           2          13           1  0.49389049076638336        3.0790215108561525E-007   1.0000000000000000     
 limit           2          13           2  0.97364730013878298       0.87633175890268278        1.0000000000000000       0.96486469688474119        1.9107555030741942E-002   6.2955581040514061E-003  0.97459688686520662     
 chl2c           2          13           2  0.49357926819555320        3.0766013289888422E-007   1.0000000000000000     
 limit           2          13           3  0.99080556408090004       0.95384886341271991        1.0000000000000000        1.0000000000000000        5.1035947432263334E-002   6.0906354842844334E-003  0.94287341708345229     
 chl2c           2          13           3  0.19701961977917945        2.0446852679788421E-007   1.0000000000000000     
 limit           2          13           4  0.99156530438513113       0.95753146051445504        1.0000000000000000       0.44142361259407403       0.12775099089519446       0.87224900910480552        0.0000000000000000     
 chl2c           2          13           4  0.19694550992887572        2.0069593471638165E-007   1.0000000000000000     
 limit           2          13           5  0.97364730013878298       0.63918945282588224        1.0000000000000000        1.0000000000000000        0.0000000000000000        0.0000000000000000        0.0000000000000000     
 chl2c           2          13           5  0.47509944571857654        2.7820804346670996E-007   1.0000000000000000     
 limit           2          13           6  0.97880613700896579       0.89855633520296319        1.0000000000000000       0.97515682775167722        2.3523936361157672E-002   6.2672129114486105E-003  0.97020885072739371     
 chl2c           2          13           6  0.49231937666302089        3.0611831968713545E-007   1.0000000000000000     
 consum   3.3436521615393457E-008   6.0465486746969541E-009
 reminPOC   1.9936585324941503E-007  0.41518274761967522        3.8580246913580245E-007   1.2446477956638367     
 reminPOSi   1.2289475020905148E-008  0.41518274761967522        7.7160493827160495E-008  0.38361805056704856     
 reminDOC   7.0440971450867956E-007   1.2372006408409792E-009
 limit           2          14           1  0.97388878349146024       0.87848508767925892       0.84882072182202661       0.96556175181474568        1.8263367971874625E-002   5.9707845311731851E-003  0.97576584749695217     
 chl2c           2          14           1  0.49588969534444455        0.0000000000000000        1.0000000000000000     
 limit           2          14           2  0.97388878349146024       0.87848508767925892        1.0000000000000000       0.96556175181474568        1.8263367971874625E-002   5.9707845311731851E-003  0.97576584749695217     
 chl2c           2          14           2  0.49567878476489952        0.0000000000000000        1.0000000000000000     
 limit           2          14           3  0.99089128835527218       0.95472219101132638        1.0000000000000000        1.0000000000000000        4.8935933041700970E-002   5.7842382915040151E-003  0.94527982866679494     
 chl2c           2          14           3  0.19799269258368812        0.0000000000000000        1.0000000000000000     
 limit           2          14           4  0.99164400496322502       0.95833814530212225        1.0000000000000000       0.43090525506465405       0.12538870429995433       0.87461129570004559        0.0000000000000000     
 chl2c           2          14           4  0.19794036376177546        0.0000000000000000        1.0000000000000000     
 limit           2          14           5  0.97388878349146024       0.64379354071963935        1.0000000000000000        1.0000000000000000        0.0000000000000000        0.0000000000000000        0.0000000000000000     
 chl2c           2          14           5  0.48303540722303362        0.0000000000000000        1.0000000000000000     
 limit           2          14           6  0.97900136682170780       0.90036668339716330        1.0000000000000000       0.97557639536938101        2.2495685358550028E-002   5.9450441703075910E-003  0.97155927047114232     
 chl2c           2          14           6  0.49482645257943531        0.0000000000000000        1.0000000000000000     
 consum   0.0000000000000000        0.0000000000000000     
 reminPOC   1.9843047591580425E-007  0.41201928474538807        3.8580246913580245E-007   1.2483197088495548     
 reminPOSi   1.2570396225466833E-008  0.41201928474538807        7.7160493827160495E-008  0.39539978130568243     
 reminDOC   6.6608589229761893E-007   1.2492583770732366E-009
 limit           2          15           1  0.97418445574787182       0.88107284327075419       0.85662308979761204       0.96640429225580882        1.7239964722228999E-002   5.5790748345928114E-003  0.97718096044317815     
 chl2c           2          15           1  0.49749970162750207        0.0000000000000000        1.0000000000000000     
 limit           2          15           2  0.97418445574787182       0.88107284327075419        1.0000000000000000       0.96640429225580882        1.7239964722228999E-002   5.5790748345928114E-003  0.97718096044317815     
 chl2c           2          15           2  0.49737055354540410        0.0000000000000000        1.0000000000000000     
 limit           2          15           3  0.99099621148151251       0.95576816244796137        1.0000000000000000        1.0000000000000000        4.6372295677980284E-002   5.4136921891107708E-003  0.94821401213290901     
 chl2c           2          15           3  0.19877789245163663        0.0000000000000000        1.0000000000000000     
 limit           2          15           4  0.99174032983110039       0.95930414453831281        1.0000000000000000       0.41743138782995126       0.12254023256044293       0.87745976743955711        0.0000000000000000     
 chl2c           2          15           4  0.19874408297362656        0.0000000000000000        1.0000000000000000     
 limit           2          15           5  0.97418445574787182       0.64938449015583921        1.0000000000000000        1.0000000000000000        0.0000000000000000        0.0000000000000000        0.0000000000000000     
 chl2c           2          15           5  0.48957540566226038        0.0000000000000000        1.0000000000000000     
 limit           2          15           6  0.97924038042272654       0.90254015004655885        1.0000000000000000       0.97608193352786909        2.1247791577164440E-002   5.5563226212903480E-003  0.97319588580154526     
 chl2c           2          15           6  0.49684973460880683        0.0000000000000000        1.0000000000000000     
 consum   0.0000000000000000        0.0000000000000000     
 reminPOC   1.9762208856890224E-007  0.40887544318434510        3.8580246913580245E-007   1.2527933924846846     
 reminPOSi   1.2942425155023440E-008  0.40887544318434510        7.7160493827160495E-008  0.41023209587443843     
 reminDOC   6.2012360630779153E-007   1.2641655762556178E-009
 limit           2          16           1  0.97457357745472195       0.88356240396769170       0.86601699083593831       0.96736041675306816        1.6226374186209348E-002   5.1756206831560410E-003  0.97859800513063466     
 chl2c           2          16           1  0.49862365559384353        0.0000000000000000        1.0000000000000000     
 limit           2          16           2  0.97457357745472195       0.88356240396769170        1.0000000000000000       0.96736041675306816        1.6226374186209348E-002   5.1756206831560410E-003  0.97859800513063466     
 chl2c           2          16           2  0.49855210932048294        0.0000000000000000        1.0000000000000000     
 limit           2          16           3  0.99113423315935623       0.95677080781837776        1.0000000000000000        1.0000000000000000        4.3817195848109634E-002   5.0304657171032817E-003  0.95115233843478719     
 chl2c           2          16           3  0.19932742793597263        0.0000000000000000        1.0000000000000000     
 limit           2          16           4  0.99186703831757650       0.96022997165029655        1.0000000000000000       0.40349726314875278       0.11967959272437799       0.88032040727562200        0.0000000000000000     
 chl2c           2          16           4  0.19930759543946860        0.0000000000000000        1.0000000000000000     
 limit           2          16           5  0.97457357745472195       0.65482400505065297        1.0000000000000000        1.0000000000000000        0.0000000000000000        0.0000000000000000        0.0000000000000000     
 chl2c           2          16           5  0.49422563816748155        0.0000000000000000        1.0000000000000000     
 limit           2          16           6  0.97955489277672902       0.90462896844507790        1.0000000000000000       0.97668027779009858        2.0010893300404814E-002   5.1557103756531058E-003  0.97483339632394206     
 chl2c           2          16           6  0.49826448026859133        0.0000000000000000        1.0000000000000000     
 consum   0.0000000000000000        0.0000000000000000     
 reminPOC   1.9666053969966916E-007  0.40541606921980505        3.8580246913580245E-007   1.2573357535691900     
 reminPOSi   1.3302664462110844E-008  0.40541606921980505        7.7160493827160495E-008  0.42524839175894824     
 reminDOC   5.7422951901571720E-007   1.2798361672053100E-009
 limit           2          17           1  0.97515758844580003       0.88362422084961423       0.87860402740428900       0.96817609158113915        1.6161679614514438E-002   5.0193916443077458E-003  0.97881892874117782     
 chl2c           2          17           1  0.49924506724308998        0.0000000000000000        1.0000000000000000     
 limit           2          17           2  0.97515758844580003       0.88362422084961423        1.0000000000000000       0.96817609158113915        1.6161679614514438E-002   5.0193916443077458E-003  0.97881892874117782     
 chl2c           2          17           2  0.49920550316068202        0.0000000000000000        1.0000000000000000     
 limit           2          17           3  0.99134124750311159       0.95679565874398165        1.0000000000000000        1.0000000000000000        4.3674116664511410E-002   4.8790274261410957E-003  0.95144685590934741     
 chl2c           2          17           3  0.19963042553208693        0.0000000000000000        1.0000000000000000     
 limit           2          17           4  0.99205707889552353       0.96025291663585022        1.0000000000000000       0.40319265535205623       0.11940551688704715       0.88059448311295285        0.0000000000000000     
 chl2c           2          17           4  0.19961947425711118        0.0000000000000000        1.0000000000000000     
 limit           2          17           5  0.97515758844580003       0.65495983686684733        1.0000000000000000        1.0000000000000000        0.0000000000000000        0.0000000000000000        0.0000000000000000     
 chl2c           2          17           5  0.49681516026994732        0.0000000000000000        1.0000000000000000     
 limit           2          17           6  0.98002683443684790       0.90468080762353187        1.0000000000000000       0.97733122582624576        1.9934874682578114E-002   5.0001413839706995E-003  0.97506498393345120     
 chl2c           2          17           6  0.49904742548033409        0.0000000000000000        1.0000000000000000     
 consum   0.0000000000000000        0.0000000000000000     
 reminPOC   1.9539265011818268E-007  0.40258138770701424        3.8580246913580245E-007   1.2580257423001213     
 reminPOSi   1.3272753182827414E-008  0.40258138770701424        7.7160493827160495E-008  0.42727976628325942     
 reminDOC   5.6948176483466302E-007   1.2857855947778504E-009
 limit           2          18           1  0.97571543650776626       0.88368522562527263       0.88903031110098818       0.96894549197169189        1.6104432187703660E-002   4.8721531947998062E-003  0.97902341461749653     
 chl2c           2          18           1  0.49958545747185507        0.0000000000000000        1.0000000000000000     
 limit           2          18           2  0.97571543650776626       0.88368522562527263        1.0000000000000000       0.96894549197169189        1.6104432187703660E-002   4.8721531947998062E-003  0.97902341461749653     
 chl2c           2          18           2  0.49956365852032497        0.0000000000000000        1.0000000000000000     
 limit           2          18           3  0.99153883709120072       0.95682018105256517        1.0000000000000000        1.0000000000000000        4.3548617593550991E-002   4.7362523126552834E-003  0.95171513009379372     
 chl2c           2          18           3  0.19979700401671660        0.0000000000000000        1.0000000000000000     
 limit           2          18           4  0.99223846136336513       0.96027555811415000        1.0000000000000000       0.40290800915279895       0.11917206218360803       0.88082793781639190        0.0000000000000000     
 chl2c           2          18           4  0.19979096985891789        0.0000000000000000        1.0000000000000000     
 limit           2          18           5  0.97571543650776626       0.65509392083628759        1.0000000000000000        1.0000000000000000        0.0000000000000000        0.0000000000000000        0.0000000000000000     
 chl2c           2          18           5  0.49824706808906649        0.0000000000000000        1.0000000000000000     
 limit           2          18           6  0.98047753027510098       0.90473196448910342        1.0000000000000000       0.97794569640864049        1.9867769625834225E-002   4.8535175213379701E-003  0.97527871285282774     
 chl2c           2          18           6  0.49947676657424167        0.0000000000000000        1.0000000000000000     
 consum   0.0000000000000000        0.0000000000000000     
 reminPOC   1.9411535971796066E-007  0.39976611397905176        3.8580246913580245E-007   1.2586034553576984     
 reminPOSi   1.3231014643766544E-008  0.39976611397905176        7.7160493827160495E-008  0.42893567960640067     
 reminDOC   5.6478431940592376E-007   1.2912849773372216E-009
 limit           2          19           1  0.97624878751940947       0.88374650338613592       0.89780724380831722       0.96967289408726787        1.6051788602509890E-002   4.7330788502531586E-003  0.97921513254723691     
 chl2c           2          19           1  0.49977240808555962        0.0000000000000000        1.0000000000000000     
 limit           2          19           2  0.97624878751940947       0.88374650338613592        1.0000000000000000       0.96967289408726787        1.6051788602509890E-002   4.7330788502531586E-003  0.97921513254723691     
 chl2c           2          19           2  0.49976043530611619        0.0000000000000000        1.0000000000000000     
 limit           2          19           3  0.99172761222045180       0.95684481095091090        1.0000000000000000        1.0000000000000000        4.3433586905769185E-002   4.6013643871037381E-003  0.95196504870712706     
 chl2c           2          19           3  0.19988854183785160        0.0000000000000000        1.0000000000000000     
 limit           2          19           4  0.99241174678765243       0.96029829883672913        1.0000000000000000       0.40263199319321785       0.11896303677126616       0.88103696322873382        0.0000000000000000     
 chl2c           2          19           4  0.19988522198035710        0.0000000000000000        1.0000000000000000     
 limit           2          19           5  0.97624878751940947       0.65522864143946624        1.0000000000000000        1.0000000000000000        0.0000000000000000        0.0000000000000000        0.0000000000000000     
 chl2c           2          19           5  0.49903644069115782        0.0000000000000000        1.0000000000000000     
 limit           2          19           6  0.98090834000087823       0.90478334898565260        1.0000000000000000       0.97852669562725214        1.9806117659968481E-002   4.7150194287786168E-003  0.97547886291125285     
 chl2c           2          19           6  0.49971270631611076        0.0000000000000000        1.0000000000000000     
 consum   0.0000000000000000        0.0000000000000000     
 reminPOC   1.9290974912208528E-007  0.39710102929554614        3.8580246913580245E-007   1.2591809963612535     
 reminPOSi   1.3193550714164032E-008  0.39710102929554614        7.7160493827160495E-008  0.43059172513075039     
 reminDOC   5.6030631262479181E-007   1.2967850482638088E-009
 limit           2          20           1  0.97686310371473639       0.88506127290884373       0.90630618697314247       0.97052631508427933        1.5803400491973697E-002   4.5243515925005176E-003  0.97967224791552576     
 chl2c           2          20           1  0.49988697035842944        0.0000000000000000        1.0000000000000000     
 limit           2          20           2  0.97686310371473639       0.88506127290884373        1.0000000000000000       0.97052631508427933        1.5803400491973697E-002   4.5243515925005176E-003  0.97967224791552576     
 chl2c           2          20           2  0.49988102284516367        0.0000000000000000        1.0000000000000000     
 limit           2          20           3  0.99194487778427476       0.95737275068780814        1.0000000000000000        1.0000000000000000        4.2819394027087933E-002   4.4001590750353328E-003  0.95278044689787678     
 chl2c           2          20           3  0.19994463858084480        0.0000000000000000        1.0000000000000000     
 limit           2          20           4  0.99261117814699729       0.96078572172912002        1.0000000000000000       0.39906749055742802       0.11832910081086305       0.88167089918913688        0.0000000000000000     
 chl2c           2          20           4  0.19994296530555580        0.0000000000000000        1.0000000000000000     
 limit           2          20           5  0.97686310371473639       0.65812806629879916        1.0000000000000000        1.0000000000000000        0.0000000000000000        0.0000000000000000        0.0000000000000000     
 chl2c           2          20           5  0.49952113397302816        0.0000000000000000        1.0000000000000000     
 limit           2          20           6  0.98140443423650192       0.90588553905878411        1.0000000000000000       0.97917508958974075        1.9504976987165256E-002   4.5073354460119465E-003  0.97598768756682275     
 chl2c           2          20           6  0.49985731079014484        0.0000000000000000        1.0000000000000000     
 consum   0.0000000000000000        0.0000000000000000     
 reminPOC   1.9183790266040212E-007  0.39470994225461298        3.8580246913580245E-007   1.2597702526961139     
 reminPOSi   1.3205922320222001E-008  0.39470994225461298        7.7160493827160495E-008  0.43360639028361569     
 reminDOC   5.4726418806838980E-007   1.3046582520893122E-009
 limit           2          21           1  0.97766180022148352       0.89418622146261140       0.91366327424879223       0.97181009120454276        1.4202946344930951E-002   3.9314176718297789E-003  0.98186563598323928     
 chl2c           2          21           1  0.49994919060244947        0.0000000000000000        1.0000000000000000     
 limit           2          21           2  0.97766180022148352       0.89418622146261140        1.0000000000000000       0.97181009120454276        1.4202946344930951E-002   3.9314176718297789E-003  0.98186563598323928     
 chl2c           2          21           2  0.49994651670927215        0.0000000000000000        1.0000000000000000     
 limit           2          21           3  0.99222708703880780       0.96100981684653353        1.0000000000000000        1.0000000000000000        3.8718639343548050E-002   3.8336476203424470E-003  0.95744771303610954     
 chl2c           2          21           3  0.19997512114652663        0.0000000000000000        1.0000000000000000     
 limit           2          21           4  0.99287021151679800       0.96414249120638162        1.0000000000000000       0.37168442150354697       0.11470313037352642       0.88529686962647358        0.0000000000000000     
 chl2c           2          21           4  0.19997427170360699        0.0000000000000000        1.0000000000000000     
 limit           2          21           5  0.97766180022148352       0.67872944114594391        1.0000000000000000        1.0000000000000000        0.0000000000000000        0.0000000000000000        0.0000000000000000     
 chl2c           2          21           5  0.49978490678622456        0.0000000000000000        1.0000000000000000     
 limit           2          21           6  0.98204924265644356       0.91351879658901358        1.0000000000000000       0.97993159155732257        1.7545998582061774E-002   3.9180853793521582E-003  0.97853591603858603     
 chl2c           2          21           6  0.49993585278954683        0.0000000000000000        1.0000000000000000     
 consum   0.0000000000000000        0.0000000000000000     
 reminPOC   1.9031260269887130E-007  0.39154527233584591        3.8580246913580245E-007   1.2598549926363491     
 reminPOSi   1.3427334707253566E-008  0.39154527233584591        7.7160493827160495E-008  0.44443968578106835     
 reminDOC   4.7183515542460647E-007   1.3234168158319226E-009
 limit           2          22           1  0.97840721686021748       0.90196999596530414       0.91994896977908613       0.97303710092057716        1.2604784279460242E-002   3.3779818017920004E-003  0.98401723391874774     
 chl2c           2          22           1  0.49997716912706580        0.0000000000000000        1.0000000000000000     
 limit           2          22           2  0.97840721686021748       0.90196999596530414        1.0000000000000000       0.97303710092057716        1.2604784279460242E-002   3.3779818017920004E-003  0.98401723391874774     
 chl2c           2          22           2  0.49997596755964901        0.0000000000000000        1.0000000000000000     
 limit           2          22           3  0.99249019942665528       0.96407546449399695        1.0000000000000000        1.0000000000000000        3.4572560052310908E-002   3.3028277544510016E-003  0.96212461219323797     
 chl2c           2          22           3  0.19998882038676080        0.0000000000000000        1.0000000000000000     
 limit           2          22           4  0.99311170533116289       0.96697029438348281        1.0000000000000000       0.34233633647630307       0.11102436750346767       0.88897563249653233        0.0000000000000000     
 chl2c           2          22           4  0.19998838350031664        0.0000000000000000        1.0000000000000000     
 limit           2          22           5  0.97840721686021748       0.69699169882222656        1.0000000000000000        1.0000000000000000        0.0000000000000000        0.0000000000000000        0.0000000000000000     
 chl2c           2          22           5  0.49990339714836834        0.0000000000000000        1.0000000000000000     
 limit           2          22           6  0.98265085020232579       0.92000766702743408        1.0000000000000000       0.98063964438361639        1.5586039555927689E-002   3.3677826171999879E-003  0.98104617782687231     
 chl2c           2          22           6  0.49997117432212507        0.0000000000000000        1.0000000000000000     
 consum   0.0000000000000000        0.0000000000000000     
 reminPOC   1.8872697525928992E-007  0.38826004606417919        3.8580246913580245E-007   1.2599295879937598     
 reminPOSi   1.3644235748948428E-008  0.38826004606417919        7.7160493827160495E-008  0.45544036039480057     
 reminDOC   3.9741995548245823E-007   1.3425321946282868E-009
 limit           2          23           1  0.97910448206609013       0.90868697350401173       0.92538159286239685       0.97421276562154868        1.1008471189631929E-002   2.8601668742807198E-003  0.98613136193608741     
 chl2c           2          23           1  0.49998973921106610        0.0000000000000000        1.0000000000000000     
 limit           2          23           2  0.97910448206609013       0.90868697350401173        1.0000000000000000       0.97421276562154868        1.1008471189631929E-002   2.8601668742807198E-003  0.98613136193608741     
 chl2c           2          23           2  0.49998919918107249        0.0000000000000000        1.0000000000000000     
 limit           2          23           3  0.99273607905179651       0.96669413476851385        1.0000000000000000        1.0000000000000000        3.0379634593684066E-002   2.8041454036507396E-003  0.96681622000266521     
 chl2c           2          23           3  0.19999497599182925        0.0000000000000000        1.0000000000000000     
 limit           2          23           4  0.99333737273099765       0.96938465098043269        1.0000000000000000       0.31079355157888444       0.10728503570881655       0.89271496429118347        0.0000000000000000     
 chl2c           2          23           4  0.19999474748329932        0.0000000000000000        1.0000000000000000     
 limit           2          23           5  0.97910448206609013       0.71328918951857623        1.0000000000000000        1.0000000000000000        0.0000000000000000        0.0000000000000000        0.0000000000000000     
 chl2c           2          23           5  0.49995660972856232        0.0000000000000000        1.0000000000000000     
 limit           2          23           6  0.98321343284988527       0.92559067058960931        1.0000000000000000       0.98130364309284368        1.3624625646921884E-002   2.8526009466678277E-003  0.98352277340641037     
 chl2c           2          23           6  0.49998704448581782        0.0000000000000000        1.0000000000000000     
 consum   0.0000000000000000        0.0000000000000000     
 reminPOC   1.8708571669007707E-007  0.38486059992679178        3.8580246913580245E-007   1.2600047335396829     
 reminPOSi   1.3851453251888401E-008  0.38486059992679178        7.7160493827160495E-008  0.46644118462274653     
 reminDOC   3.2410217677051295E-007   1.3616509037204165E-009
 limit           2          24           1  0.98014940638756032       0.91771228818347128       0.93382873476520933       0.97596625541514015        8.6358399043432663E-003   2.1361828413503322E-003  0.98922797725430645     
 chl2c           2          24           1  0.49999746627755726        0.0000000000000000        1.0000000000000000     
 limit           2          24           2  0.98014940638756032       0.91771228818347128        1.0000000000000000       0.97596625541514015        8.6358399043432663E-003   2.1361828413503322E-003  0.98922797725430645     
 chl2c           2          24           2  0.49999733292442344        0.0000000000000000        1.0000000000000000     
 limit           2          24           3  0.99310412777243695       0.97017424926376783        1.0000000000000000        1.0000000000000000        2.4052225596283290E-002   2.1029637479875224E-003  0.97384481065572914     
 chl2c           2          24           3  0.19999876100550079        0.0000000000000000        1.0000000000000000     
 limit           2          24           4  0.99367514917780653       0.97259160549657564        1.0000000000000000       0.25894419126444967       0.10169389318455963       0.89830610681544032        0.0000000000000000     
 chl2c           2          24           4  0.19999868753460939        0.0000000000000000        1.0000000000000000     
 limit           2          24           5  0.98014940638756032       0.73601685870082945        1.0000000000000000        1.0000000000000000        0.0000000000000000        0.0000000000000000        0.0000000000000000     
 chl2c           2          24           5  0.49998930720689666        0.0000000000000000        1.0000000000000000     
 limit           2          24           6  0.98405622643611512       0.93306829924617274        1.0000000000000000       0.98229032405672989        1.0702750573844042E-002   2.1317290802759302E-003  0.98716552034588001     
 chl2c           2          24           6  0.49999680070979768        0.0000000000000000        1.0000000000000000     
 consum   0.0000000000000000        0.0000000000000000     
 reminPOC   1.8538672333350021E-007  0.38148059817564262        3.8580246913580245E-007   1.2596247074646474     
 reminPOSi   1.4310730035027515E-008  0.38148059817564262        7.7160493827160495E-008  0.48617691736071778     
 reminDOC   2.1764910474443624E-007   1.4063595441062527E-009
 limit           2          25           1  0.98124299040181462       0.92575118694423086       0.94438873557433844       0.97763700237748474        6.7199688572898908E-003   1.5678043547777041E-003  0.99171222678793236     
 chl2c           2          25           1  0.49999965675297176        0.0000000000000000        1.0000000000000000     
 limit           2          25           2  0.98124299040181462       0.92575118694423086        1.0000000000000000       0.97763700237748474        6.7199688572898908E-003   1.5678043547777041E-003  0.99171222678793236     
 chl2c           2          25           2  0.49999963868734809        0.0000000000000000        1.0000000000000000     
 limit           2          25           3  0.99348876760299265       0.97323746439307723        1.0000000000000000        1.0000000000000000        1.8860442595151385E-002   1.5486416947034991E-003  0.97959091571014512     
 chl2c           2          25           3  0.19999983227386434        0.0000000000000000        1.0000000000000000     
 limit           2          25           4  0.99402812994993150       0.97541284113410232        1.0000000000000000       0.21152484014741504        9.7426689909954040E-002  0.90257331009004593        0.0000000000000000     
 chl2c           2          25           4  0.19999981905775921        0.0000000000000000        1.0000000000000000     
 limit           2          25           5  0.98124299040181462       0.75710806205632375        1.0000000000000000        1.0000000000000000        0.0000000000000000        0.0000000000000000        0.0000000000000000     
 chl2c           2          25           5  0.49999855336278981        0.0000000000000000        1.0000000000000000     
 limit           2          25           6  0.98493788828665640       0.93970559190844505        1.0000000000000000       0.98328841561890967        8.3379881110978282E-003   1.5652504550186244E-003  0.99009676143388359     
 chl2c           2          25           6  0.49999956657231326        0.0000000000000000        1.0000000000000000     
 consum   0.0000000000000000        0.0000000000000000     
 reminPOC   1.8141468271830911E-007  0.37400774524862912        3.8580246913580245E-007   1.2572650261380671     
 reminPOSi   1.4882196650584740E-008  0.37400774524862912        7.7160493827160495E-008  0.51569324711006148     
 reminDOC   1.2969569191273408E-007   1.5094587452359723E-009
 limit           2          26           1  0.98254405681098056       0.93418457611544237       0.95495845478000352       0.97972958912791885        4.1963735344730741E-003   8.9869438617665273E-004  0.99490493207935027     
 chl2c           2          26           1  0.49999998270632284        0.0000000000000000        1.0000000000000000     
 limit           2          26           2  0.98254405681098056       0.93418457611544237        1.0000000000000000       0.97972958912791885        4.1963735344730741E-003   8.9869438617665273E-004  0.99490493207935027     
 chl2c           2          26           2  0.49999998179612926        0.0000000000000000        1.0000000000000000     
 limit           2          26           3  0.99394565551381775       0.97641464187152371        1.0000000000000000       0.99996971816979396        1.1897931947248837E-002   8.9174387191216927E-004  0.98721032418083898     
 chl2c           2          26           3  0.19999999164309037        0.0000000000000000        1.0000000000000000     
 limit           2          26           4  0.99444738276620526       0.97833751192062113        1.0000000000000000       0.14032560259717797        9.2393303651617395E-002  0.90760669634838265        0.0000000000000000     
 chl2c           2          26           4  0.19999999053781523        0.0000000000000000        1.0000000000000000     
 limit           2          26           5  0.98254405681098056       0.78014738383654880        1.0000000000000000        1.0000000000000000        0.0000000000000000        0.0000000000000000        0.0000000000000000     
 chl2c           2          26           5  0.49999992796901704        0.0000000000000000        1.0000000000000000     
 limit           2          26           6  0.98598632105206752       0.94664534909930542        1.0000000000000000       0.98450908614620469        5.2146419916457966E-003   8.9777541769555779E-004  0.99388758259065857     
 chl2c           2          26           6  0.49999997816191977        0.0000000000000000        1.0000000000000000     
 consum   0.0000000000000000        0.0000000000000000     
 reminPOC   1.7681602360361343E-007  0.36665927611404536        3.8580246913580245E-007   1.2499537391712261     
 reminPOSi   1.5762733344400772E-008  0.36665927611404536        7.7160493827160495E-008  0.55715220492578887     
 reminDOC   1.9442096799278712E-008   1.6742132532973731E-009
 limit           2          27           1  0.98311694039028008       0.93500406473780484       0.96468479248308370       0.98086977320692537        3.6406730419805988E-003   7.1325843319945811E-004  0.99564606852481996     
 chl2c           2          27           1  0.49999999987791549        0.0000000000000000        1.0000000000000000     
 limit           2          27           2  0.98311694039028008       0.93500406473780484        1.0000000000000000       0.98086977320692537        3.6406730419805988E-003   7.1325843319945811E-004  0.99564606852481996     
 chl2c           2          27           2  0.49999999987149002        0.0000000000000000        1.0000000000000000     
 limit           2          27           3  0.99414658118432253       0.97672141331576601        1.0000000000000000       0.99946002692174440        1.0350277902372218E-002   7.0845526418138747E-004  0.98894126683344641     
 chl2c           2          27           3  0.19999999994360276        0.0000000000000000        1.0000000000000000     
 limit           2          27           4  0.99463174753312922       0.97861982050931884        1.0000000000000000       0.12030882050505477        9.3713099433634650E-002  0.90628690056636541        0.0000000000000000     
 chl2c           2          27           4  0.19999999993446874        0.0000000000000000        1.0000000000000000     
 limit           2          27           5  0.98311694039028008       0.78243816397971544        1.0000000000000000        1.0000000000000000        0.0000000000000000        0.0000000000000000        0.0000000000000000     
 chl2c           2          27           5  0.49999999951386287        0.0000000000000000        1.0000000000000000     
 limit           2          27           6  0.98644779176432695       0.94731843426301332        1.0000000000000000       0.98532490468356071        4.5262239271838854E-003   7.1262449861400395E-004  0.99476115157420208     
 chl2c           2          27           6  0.49999999984583282        0.0000000000000000        1.0000000000000000     
 consum   0.0000000000000000        0.0000000000000000     
 reminPOC   1.6487644374580247E-007  0.35696189965818670        3.8580246913580245E-007   1.1972138836059076     
 reminPOSi   1.6348415238586836E-008  0.35696189965818670        7.7160493827160495E-008  0.59355203369034448     
 reminDOC   6.1935320937408720E-009   2.0423488723062563E-009
 limit           2          28           1  0.98384270339160695       0.93667738096572495       0.97225683248414740       0.98191176322582363        3.0949298854066544E-003   5.5409998250714732E-004  0.99635097013208629     
 chl2c           2          28           1  0.49999999999963224        0.0000000000000000        1.0000000000000000     
 limit           2          28           2  0.98384270339160695       0.93667738096572495        1.0000000000000000       0.98191176322582363        3.0949298854066544E-003   5.5409998250714732E-004  0.99635097013208629     
 chl2c           2          28           2  0.49999999999961298        0.0000000000000000        1.0000000000000000     
 limit           2          28           3  0.99440090621894961       0.97734674015719314        1.0000000000000000       0.99892596142851398        8.8217450120880204E-003   5.5091690293754400E-004  0.99062733808497438     
 chl2c           2          28           3  0.19999999999985948        0.0000000000000000        1.0000000000000000     
 limit           2          28           4  0.99486510146916785       0.97919523716922907        1.0000000000000000       0.10064988614666998        9.5436673439019529E-002  0.90456332656098049        0.0000000000000000     
 chl2c           2          28           4  0.19999999999983112        0.0000000000000000        1.0000000000000000     
 limit           2          28           5  0.98384270339160695       0.78714511100007523        1.0000000000000000        1.0000000000000000        0.0000000000000000        0.0000000000000000        0.0000000000000000     
 chl2c           2          28           5  0.49999999999878875        0.0000000000000000        1.0000000000000000     
 limit           2          28           6  0.98703225798246186       0.94869211483948523        1.0000000000000000       0.98606263944567496        3.8494524723704463E-003   5.5368060360661703E-004  0.99559686692402294     
 chl2c           2          28           6  0.49999999999953559        0.0000000000000000        1.0000000000000000     
 consum   0.0000000000000000        0.0000000000000000     
 reminPOC   1.4485055315343388E-007  0.34932891684025402        3.8580246913580245E-007   1.0747825778917490     
 reminPOSi   1.5794601675290895E-008  0.34932891684025402        7.7160493827160495E-008  0.58597507347316791     
 reminDOC   1.3354279055802975E-009   2.4726726695133200E-009
 limit           2          29           1  0.98456931413228743       0.93883894899327835       0.97794772585643319       0.98279878350729100        2.5242888667463604E-003   4.1376315623685428E-004  0.99706194797701675     
 chl2c           2          29           1  0.49999999999999950        0.0000000000000000        1.0000000000000000     
 limit           2          29           2  0.98456931413228743       0.93883894899327835        1.0000000000000000       0.98279878350729100        2.5242888667463604E-003   4.1376315623685428E-004  0.99706194797701675     
 chl2c           2          29           2  0.49999999999999944        0.0000000000000000        1.0000000000000000     
 limit           2          29           3  0.99465528281696214       0.97815240827027905        1.0000000000000000       0.99828972591093468        7.2139592391647928E-003   4.1181783286371894E-004  0.99237422292797151     
 chl2c           2          29           3  0.19999999999999993        0.0000000000000000        1.0000000000000000     
 limit           2          29           4  0.99509849281807705       0.97993651267444204        1.0000000000000000        8.0398787257243920E-002   9.7652892607170111E-002  0.90234710739282986        0.0000000000000000     
 chl2c           2          29           4  0.19999999999999987        0.0000000000000000        1.0000000000000000     
 limit           2          29           5  0.98456931413228743       0.79328459099517212        1.0000000000000000        1.0000000000000000        0.0000000000000000        0.0000000000000000        0.0000000000000000     
 chl2c           2          29           5  0.49999999999999883        0.0000000000000000        1.0000000000000000     
 limit           2          29           6  0.98761723639876908       0.95046523959305163        1.0000000000000000       0.98667010001424826        3.1410325302790483E-003   4.1350732463918822E-004  0.99644546014508173     
 chl2c           2          29           6  0.49999999999999928        0.0000000000000000        1.0000000000000000     
 consum   0.0000000000000000        0.0000000000000000     
 reminPOC   1.1973589915367532E-007  0.34353929454879750        3.8580246913580245E-007  0.90340597285659996     
 reminPOSi   1.4403582944891630E-008  0.34353929454879750        7.7160493827160495E-008  0.54337433279930136     
 reminDOC   4.1016833281643444E-010   2.8918677974956151E-009
 limit           2          30           1  0.98523086123456005       0.94179777834186718       0.98307761358145418       0.98344730514844647        1.7622629737030684E-003   2.6877187776950677E-004  0.99796896514852740     
 chl2c           2          30           1  0.50000000000000000        0.0000000000000000        1.0000000000000000     
 limit           2          30           2  0.98523086123456005       0.94179777834186718        1.0000000000000000       0.98344730514844647        1.7622629737030684E-003   2.6877187776950677E-004  0.99796896514852740     
 chl2c           2          30           2  0.50000000000000000        0.0000000000000000        1.0000000000000000     
 limit           2          30           3  0.99488666817564475       0.97925137635054971        1.0000000000000000       0.99724210396111801        5.0520515262754894E-003   2.6788611417438013E-004  0.99468006235955009     
 chl2c           2          30           3  0.20000000000000001        0.0000000000000000        1.0000000000000000     
 limit           2          30           4  0.99531078103329307       0.98094748553365052        1.0000000000000000        5.5167352464710828E-002   9.9580873217192542E-002  0.90041912678280744        0.0000000000000000     
 chl2c           2          30           4  0.20000000000000001        0.0000000000000000        1.0000000000000000     
 limit           2          30           5  0.98523086123456005       0.80179842872115348        1.0000000000000000        1.0000000000000000        0.0000000000000000        0.0000000000000000        0.0000000000000000     
 chl2c           2          30           5  0.50000000000000000        0.0000000000000000        1.0000000000000000     
 limit           2          30           6  0.98814968519890578       0.95288983947241834        1.0000000000000000       0.98704862420791939        2.1938410030292715E-003   2.6865567695576913E-004  0.99753750332001501     
 chl2c           2          30           6  0.50000000000000000        0.0000000000000000        1.0000000000000000     
 consum   0.0000000000000000        0.0000000000000000     
 reminPOC   8.4565092576548903E-008  0.33918486602956555        3.8580246913580245E-007  0.64623378549946431     
 reminPOSi   1.1430537702429739E-008  0.33918486602956555        7.7160493827160495E-008  0.43675229486971451     
 reminDOC   8.3459948839692880E-011   3.1891868046720245E-009
 limit           2          31           1  0.98456010645910108       0.94353391566784162       0.98577932094744258       0.98278078957905124        1.0469722292177957E-003   1.6356129085895880E-004  0.99878946647992328     
 chl2c           2          31           1  0.50000000000000000        0.0000000000000000        1.0000000000000000     
 limit           2          31           2  0.98456010645910108       0.94353391566784162        1.0000000000000000       0.98278078957905124        1.0469722292177957E-003   1.6356129085895880E-004  0.99878946647992328     
 chl2c           2          31           2  0.50000000000000000        0.0000000000000000        1.0000000000000000     
 limit           2          31           3  0.99465206087029190       0.97989414613414383        1.0000000000000000       0.99580211933863738        3.0078067224635989E-003   1.6324023810476498E-004  0.99682895303943164     
 chl2c           2          31           3  0.20000000000000001        0.0000000000000000        1.0000000000000000     
 limit           2          31           4  0.99509553673351647       0.98153870227678186        1.0000000000000000        3.2564924766682733E-002  0.10030976570626512       0.89969023429373485        0.0000000000000000     
 chl2c           2          31           4  0.20000000000000001        0.0000000000000000        1.0000000000000000     
 limit           2          31           5  0.98456010645910108       0.80685422032239462        1.0000000000000000        1.0000000000000000        0.0000000000000000        0.0000000000000000        0.0000000000000000     
 chl2c           2          31           5  0.50000000000000000        0.0000000000000000        1.0000000000000000     
 limit           2          31           6  0.98760982456936042       0.95431115853928128        1.0000000000000000       0.98637613707243321        1.3036096753118566E-003   1.6351927091327672E-004  0.99853287105377486     
 chl2c           2          31           6  0.50000000000000000        0.0000000000000000        1.0000000000000000     
 consum   0.0000000000000000        0.0000000000000000     
 reminPOC   5.0851478001584941E-008  0.33808767928551897        3.8580246913580245E-007  0.38986049790000066     
 reminPOSi   7.9422509457262397E-009  0.33808767928551897        7.7160493827160495E-008  0.30445230206003798     
 reminDOC   1.1548953750060657E-011   3.0159845732495034E-009
 limit           2          32           1  0.98367396686777742       0.94681469564208109       0.98609105296460486       0.98205089889466213        5.8005883043217902E-004   9.4399867798616375E-005  0.99932554130176920     
 chl2c           2          32           1  0.50000000000000000        0.0000000000000000        1.0000000000000000     
 limit           2          32           2  0.98367396686777742       0.94681469564208109        1.0000000000000000       0.98205089889466213        5.8005883043217902E-004   9.4399867798616375E-005  0.99932554130176920     
 chl2c           2          32           2  0.50000000000000000        0.0000000000000000        1.0000000000000000     
 limit           2          32           3  0.99434179870952499       0.98110463916617963        1.0000000000000000       0.99475596561299884        1.6684084148805690E-003   9.4297068111859681E-005  0.99823729451700749     
 chl2c           2          32           3  0.19999999999999990        0.0000000000000000        1.0000000000000000     
 limit           2          32           4  0.99481086872128976       0.98265193607502865        1.0000000000000000        1.8113233583319677E-002   9.9941526037462688E-002  0.90005847396253724        0.0000000000000000     
 chl2c           2          32           4  0.19999999999999990        0.0000000000000000        1.0000000000000000     
 limit           2          32           5  0.98367396686777742       0.81653216112042371        1.0000000000000000        1.0000000000000000        0.0000000000000000        0.0000000000000000        0.0000000000000000     
 chl2c           2          32           5  0.50000000000000000        0.0000000000000000        1.0000000000000000     
 limit           2          32           6  0.98689638749182995       0.95699430228929105        1.0000000000000000       0.98569936162642346        7.2228689224641362E-004   9.4386433695813909E-005  0.99918332667405785     
 chl2c           2          32           6  0.50000000000000000        0.0000000000000000        1.0000000000000000     
 consum   0.0000000000000000        0.0000000000000000     
 reminPOC   2.8285442269551520E-008  0.33593687640527958        3.8580246913580245E-007  0.21824298406057724     
 reminPOSi   5.3754814373046377E-009  0.33593687640527958        7.7160493827160495E-008  0.20737895813325849     
 reminDOC   8.2479599439481666E-013   2.5074897156743636E-009
 limit           2          33           1  0.98262719125054065       0.95328775879401140       0.98659009572816803       0.98137082231077777        3.3352196001582902E-004   5.7170859402948345E-005  0.99960930718058127     
 chl2c           2          33           1  0.50000000000000000        0.0000000000000000        1.0000000000000000     
 limit           2          33           2  0.98262719125054065       0.95328775879401140        1.0000000000000000       0.98137082231077777        3.3352196001582902E-004   5.7170859402948345E-005  0.99960930718058127     
 chl2c           2          33           2  0.50000000000000000        0.0000000000000000        1.0000000000000000     
 limit           2          33           3  0.99397482248871516       0.98347717978198024        1.0000000000000000       0.99409922899577752        9.5971497553364569E-004   5.7135047466031676E-005  0.99898314997700033     
 chl2c           2          33           3  0.19999999999999998        0.0000000000000000        1.0000000000000000     
 limit           2          33           4  0.99447414609376505       0.98483319827196225        1.0000000000000000        1.0576288441458208E-002   9.8398758131102160E-002  0.90160124186889790        0.0000000000000000     
 chl2c           2          33           4  0.19999999999999998        0.0000000000000000        1.0000000000000000     
 limit           2          33           5  0.98262719125054065       0.83611705425027305        1.0000000000000000        1.0000000000000000        0.0000000000000000        0.0000000000000000        0.0000000000000000     
 chl2c           2          33           5  0.50000000000000000        0.0000000000000000        1.0000000000000000     
 limit           2          33           6  0.98605329431030608       0.96227778923358021        1.0000000000000000       0.98510439428334662        4.1528839671776008E-004   5.7166183185870689E-005  0.99952754542009636     
 chl2c           2          33           6  0.50000000000000000        0.0000000000000000        1.0000000000000000     
 consum   0.0000000000000000        0.0000000000000000     
 reminPOC   1.6192044802814887E-008  0.33202349611817877        3.8580246913580245E-007  0.12640605444970579     
 reminPOSi   4.0657285368170531E-009  0.33202349611817877        7.7160493827160495E-008  0.15869913561296320     
 reminDOC   2.6933355550972566E-014   1.9791278337452290E-009
 limit           2          34           1  0.98238261792128390       0.95780535170896242       0.98775941372454690       0.98134805293205174        1.9001078755816992E-004   3.3637102528352938E-005  0.99977635210991345     
 chl2c           2          34           1  0.50000000000000000        0.0000000000000000        1.0000000000000000     
 limit           2          34           2  0.98238261792128390       0.95780535170896242        1.0000000000000000       0.98134805293205174        1.9001078755816992E-004   3.3637102528352938E-005  0.99977635210991345     
 chl2c           2          34           2  0.50000000000000000        0.0000000000000000        1.0000000000000000     
 limit           2          34           3  0.99388900691294924       0.98512069128434043        1.0000000000000000       0.99384803082475381        5.4703227829867558E-004   3.3625091077558843E-005  0.99941934263062371     
 chl2c           2          34           3  0.19999999999999998        0.0000000000000000        1.0000000000000000     
 limit           2          34           4  0.99439540219866851       0.98634370065282029        1.0000000000000000        6.2073588407534153E-003   9.5541747233438792E-002  0.90445825276656111        0.0000000000000000     
 chl2c           2          34           4  0.19999999999999998        0.0000000000000000        1.0000000000000000     
 limit           2          34           5  0.98238261792128390       0.85018551530737463        1.0000000000000000        1.0000000000000000        0.0000000000000000        0.0000000000000000        0.0000000000000000     
 chl2c           2          34           5  0.50000000000000000        0.0000000000000000        1.0000000000000000     
 limit           2          34           6  0.98585625919988751       0.96595699484128150        1.0000000000000000       0.98505874141006333        2.3660774798757572E-004   3.3635534843740483E-005  0.99972975671716868     
 chl2c           2          34           6  0.50000000000000000        0.0000000000000000        1.0000000000000000     
 consum   0.0000000000000000        0.0000000000000000     
 reminPOC   9.1565508063628747E-009  0.32656291669218940        3.8580246913580245E-007   7.2677510142596755E-002
 reminPOSi   3.5229298667856431E-009  0.32656291669218940        7.7160493827160495E-008  0.13981125455398025     
 reminDOC   8.5780686687734006E-016   1.5449390877169738E-009
 limit           2          35           1  0.98297773985854786       0.96075412375430813       0.98939038211592267       0.98196785944716702        1.1957533449525305E-004   2.1677669565855328E-005  0.99985874699593891     
 chl2c           2          35           1  0.50000000000000000        0.0000000000000000        1.0000000000000000     
 limit           2          35           2  0.98297773985854786       0.96075412375430813        1.0000000000000000       0.98196785944716702        1.1957533449525305E-004   2.1677669565855328E-005  0.99985874699593891     
 chl2c           2          35           2  0.50000000000000000        0.0000000000000000        1.0000000000000000     
 limit           2          35           3  0.99409777388718679       0.98618805900956452        1.0000000000000000       0.99394643112165859        3.4448075859841632E-004   2.1672793557337702E-005  0.99963384644784425     
 chl2c           2          35           3  0.19999999999999998        0.0000000000000000        1.0000000000000000     
 limit           2          35           4  0.99458696364954635       0.98732446461320200        1.0000000000000000        4.1220007840887555E-003   9.0613920367615758E-002  0.90938607963238416        0.0000000000000000     
 chl2c           2          35           4  0.19999999999999998        0.0000000000000000        1.0000000000000000     
 limit           2          35           5  0.98297773985854786       0.85955245582977979        1.0000000000000000        1.0000000000000000        0.0000000000000000        0.0000000000000000        0.0000000000000000     
 chl2c           2          35           5  0.50000000000000000        0.0000000000000000        1.0000000000000000     
 limit           2          35           6  0.98633567233881692       0.96835491115533012        1.0000000000000000       0.98554484797467212        1.4892230524329029E-004   2.1677033315840883E-005  0.99982940066144088     
 chl2c           2          35           6  0.50000000000000000        0.0000000000000000        1.0000000000000000     
 consum   0.0000000000000000        0.0000000000000000     
 reminPOC   5.7139700154971124E-009  0.31938537899180108        3.8580246913580245E-007   4.6372223822270582E-002
 reminPOSi   4.3565186064603982E-009  0.31938537899180108        7.7160493827160495E-008  0.17677854045152189     
 reminDOC   1.3660354293119126E-015   1.6394144781328860E-009
 graz           2           7           1   2.3081348300203956E-009   3.3958539591100137E-008  0.17200000000000001       0.10251420817845738       0.25941813853751272     
 graz           2           7           2   2.4149553758040033E-009   3.3958539591100137E-008  0.18000000000000002       0.10249152116175464       0.25941813853751272     
 graz           2           7           3   1.3451317760920742E-008   3.3958539591100137E-008   1.0000000000000000       0.10275812377188256       0.25941813853751272     
 graz           2           7           4   1.3456528574127818E-008   3.3958539591100137E-008   1.0000000000000000       0.10279793053267745       0.25941813853751272     
 graz           2           7           5   1.8068316400161890E-010   3.3958539591100137E-008  0.13500000000000001        1.0224339277589842E-002  0.25941813853751272     
 graz           2           7           6   2.1469198862255596E-009   3.3958539591100137E-008  0.16000000000000003       0.10250550509167228       0.25941813853751272     
 graz           2           8           1   1.1448516529099786E-008   4.0310545993479915E-008  0.85999999999999999       0.10251420817845738       0.31042163202567552     
 graz           2           8           2   1.1978354200688621E-008   4.0310545993479915E-008  0.90000000000000002       0.10249152116175464       0.31042163202567552     
 graz           2           8           3   2.6687805533910486E-009   4.0310545993479915E-008  0.20000000000000001       0.10275812377188256       0.31042163202567552     
 graz           2           8           4   2.6698143938817405E-009   4.0310545993479915E-008  0.20000000000000001       0.10279793053267745       0.31042163202567552     
 graz           2           8           5   8.9620162682797131E-010   4.0310545993479915E-008  0.67500000000000004        1.0224339277589842E-002  0.31042163202567552     
 graz           2           8           6   1.0648878689590745E-008   4.0310545993479915E-008  0.80000000000000004       0.10250550509167228       0.31042163202567552     
 prey           2           1           1   1.3756651359120182E-008
 prey           2           1           2   1.4393309576492625E-008
 prey           2           1           3   1.6120098314311791E-008
 prey           2           1           4   1.6126342968009559E-008
 prey           2           1           5   1.0768847908295901E-009
 prey           2           1           6   1.2795798575816306E-008
 pred           2           1           7   2.4346554370459478E-008
 pred           2           1           8   3.2782296289511213E-008
 mort           2           1   7.6789960248808069E-008   1.6534391534391535E-006  0.45303542585659545       0.10251420817845738        0.0000000000000000        0.0000000000000000       0.45303542585659545        1.0509162878456099E-002
 mort           2           2   7.6772966164361414E-008   1.6534391534391535E-006  0.45303542585659545       0.10249152116175464        0.0000000000000000        0.0000000000000000       0.45303542585659545        1.0504511910050399E-002
 mort           2           3   7.6972669251355096E-008   1.6534391534391535E-006  0.45303542585659545       0.10275812377188256        0.0000000000000000        0.0000000000000000       0.45303542585659545        1.0559232001117537E-002
 mort           2           4   7.7002487162778196E-008   1.6534391534391535E-006  0.45303542585659545       0.10279793053267745        0.0000000000000000        0.0000000000000000       0.45303542585659545        1.0567414521801179E-002
 mort           2           5   7.6587101500086461E-009   1.6534391534391535E-006  0.45303542585659545        1.0224339277589841E-002   0.0000000000000000        0.0000000000000000       0.45303542585659545        1.0453711366326635E-004
 mort           2           6   7.6783441057954965E-008   1.6534391534391535E-006  0.45303542585659545       0.10250550509167228        0.0000000000000000        0.0000000000000000       0.45303542585659545        1.0507378574098851E-002
 mort           2           7   7.3747909864608901E-008   2.3148148148148148E-007  0.45303542585659545       0.31253180765213051        4.0972914361503681E-008   9.2592592592592583E-007  0.45303542585659545        9.7676130794308300E-002
 mort           2           8   7.3759123344034305E-008   2.3148148148148148E-007  0.45303542585659545       0.31256235525917364        4.0980924334409266E-008   9.2592592592592583E-007  0.45303542585659545        9.7695225925161874E-002
 graz           2           7           1   2.3108370154280832E-009   3.3989190620526141E-008  0.17200000000000001       0.10258952209115603       0.25953919959915139     
 graz           2           7           2   2.4177850930371938E-009   3.3989190620526141E-008  0.18000000000000002       0.10256692338447257       0.25953919959915139     
 graz           2           7           3   1.3462548707090330E-008   3.3989190620526141E-008   1.0000000000000000       0.10279912678746593       0.25953919959915139     
 graz           2           7           4   1.3467746392752616E-008   3.3989190620526141E-008   1.0000000000000000       0.10283881596958323       0.25953919959915139     
 graz           2           7           5   1.8083798940580213E-010   3.3989190620526141E-008  0.13500000000000001        1.0228643429504698E-002  0.25953919959915139     
 graz           2           7           6   2.1494354228121165E-009   3.3989190620526141E-008  0.16000000000000003       0.10258091231396992       0.25953919959915139     
 graz           2           8           1   1.1461756052368702E-008   4.0355108018754660E-008  0.85999999999999999       0.10258952209115603       0.31063387276192089     
 graz           2           8           2   1.1992218723531314E-008   4.0355108018754660E-008  0.90000000000000002       0.10256692338447257       0.31063387276192089     
 graz           2           8           3   2.6709707018470295E-009   4.0355108018754660E-008  0.20000000000000001       0.10279912678746593       0.31063387276192089     
 graz           2           8           4   2.6720019230833221E-009   4.0355108018754660E-008  0.20000000000000001       0.10283881596958323       0.31063387276192089     
 graz           2           8           5   8.9695677615159193E-010   4.0355108018754660E-008  0.67500000000000004        1.0228643429504698E-002  0.31063387276192089     
 graz           2           8           6   1.0661203841772704E-008   4.0355108018754660E-008  0.80000000000000004       0.10258091231396992       0.31063387276192089     
 prey           2           2           1   1.3772593067796785E-008
 prey           2           2           2   1.4410003816568508E-008
 prey           2           2           3   1.6133519408937359E-008
 prey           2           2           4   1.6139748315835938E-008
 prey           2           2           5   1.0777947655573941E-009
 prey           2           2           6   1.2810639264584822E-008
 pred           2           2           7   2.4367794288147636E-008
 pred           2           2           8   3.2818383677496771E-008
 mort           2           1   7.6834756266413356E-008   1.6534391534391535E-006  0.45296692725243548       0.10258952209115603        0.0000000000000000        0.0000000000000000       0.45296692725243548        1.0524610042891791E-002
 mort           2           2   7.6817830891535237E-008   1.6534391534391535E-006  0.45296692725243548       0.10256692338447257        0.0000000000000000        0.0000000000000000       0.45296692725243548        1.0519973772556266E-002
 mort           2           3   7.6991740385502603E-008   1.6534391534391535E-006  0.45296692725243548       0.10279912678746593        0.0000000000000000        0.0000000000000000       0.45296692725243548        1.0567660468265495E-002
 mort           2           4   7.7021465727547639E-008   1.6534391534391535E-006  0.45296692725243548       0.10283881596958323        0.0000000000000000        0.0000000000000000       0.45296692725243548        1.0575822070025807E-002
 mort           2           5   7.6607757675654040E-009   1.6534391534391535E-006  0.45296692725243548        1.0228643429504697E-002   0.0000000000000000        0.0000000000000000       0.45296692725243548        1.0462514640794960E-004
 mort           2           6   7.6828307945784515E-008   1.6534391534391535E-006  0.45296692725243548       0.10258091231396992        0.0000000000000000        0.0000000000000000       0.45296692725243548        1.0522843571166385E-002
 mort           2           7   7.3806327540987332E-008   2.3148148148148148E-007  0.45296692725243548       0.31272131890405142        4.1016416682122252E-008   9.2592592592592583E-007  0.45296692725243548        9.7794623297089420E-002
 mort           2           8   7.3817554028072925E-008   2.3148148148148148E-007  0.45296692725243548       0.31275189332782427        4.1024437335228940E-008   9.2592592592592583E-007  0.45296692725243548        9.7813746780138766E-002
 graz           2           7           1   2.3172887951856120E-009   3.4077829086316275E-008  0.17200000000000001       0.10271885899763454       0.25981869210228414     
 graz           2           7           2   2.4245397854223044E-009   3.4077829086316275E-008  0.18000000000000002       0.10269641466283755       0.25981869210228414     
 graz           2           7           3   1.3497037584494111E-008   3.4077829086316275E-008   1.0000000000000000       0.10290510711748237       0.25981869210228414     
 graz           2           7           4   1.3502213877013929E-008   3.4077829086316275E-008   1.0000000000000000       0.10294457258780418       0.25981869210228414     
 graz           2           7           5   1.8130868619393479E-010   3.4077829086316275E-008  0.13500000000000001        1.0239607605148563E-002  0.25981869210228414     
 graz           2           7           6   2.1554403580063811E-009   3.4077829086316275E-008  0.16000000000000003       0.10271041864624138       0.25981869210228414     
 graz           2           8           1   1.1493576684208569E-008   4.0465777776269080E-008  0.85999999999999999       0.10271885899763454       0.31101499792604520     
 graz           2           8           2   1.2025533462018817E-008   4.0465777776269080E-008  0.90000000000000002       0.10269641466283755       0.31101499792604520     
 graz           2           8           3   2.6777713129122976E-009   4.0465777776269080E-008  0.20000000000000001       0.10290510711748237       0.31101499792604520     
 graz           2           8           4   2.6787982736457202E-009   4.0465777776269080E-008  0.20000000000000001       0.10294457258780418       0.31101499792604520     
 graz           2           8           5   8.9927733332701877E-010   4.0465777776269080E-008  0.67500000000000004        1.0239607605148563E-002  0.31101499792604520     
 graz           2           8           6   1.0690820710156660E-008   4.0465777776269080E-008  0.80000000000000004       0.10271041864624138       0.31101499792604520     
 prey           2           3           1   1.3810865479394180E-008
 prey           2           3           2   1.4450073247441121E-008
 prey           2           3           3   1.6174808897406409E-008
 prey           2           3           4   1.6181012150659648E-008
 prey           2           3           5   1.0805860195209536E-009
 prey           2           3           6   1.2846261068163041E-008
 pred           2           3           7   2.4430832219129725E-008
 pred           2           3           8   3.2908279179671073E-008
 mort           2           1   7.6899671994050608E-008   1.6534391534391535E-006  0.45277879910127156       0.10271885899763454        0.0000000000000000        0.0000000000000000       0.45277879910127156        1.0551163993775927E-002
 mort           2           2   7.6882869217999006E-008   1.6534391534391535E-006  0.45277879910127156       0.10269641466283755        0.0000000000000000        0.0000000000000000       0.45277879910127156        1.0546553584601475E-002
 mort           2           3   7.7039105195174248E-008   1.6534391534391535E-006  0.45277879910127156       0.10290510711748237        0.0000000000000000        0.0000000000000000       0.45277879910127156        1.0589461070860520E-002
 mort           2           4   7.7068650711474298E-008   1.6534391534391535E-006  0.45277879910127156       0.10294457258780418        0.0000000000000000        0.0000000000000000       0.45277879910127156        1.0597585025285683E-002
 mort           2           5   7.6658023060969122E-009   1.6534391534391535E-006  0.45277879910127156        1.0239607605148561E-002   0.0000000000000000        0.0000000000000000       0.45277879910127156        1.0484956390741624E-004
 mort           2           6   7.6893353190863134E-008   1.6534391534391535E-006  0.45277879910127156       0.10271041864624138        0.0000000000000000        0.0000000000000000       0.45277879910127156        1.0549430098486169E-002
 mort           2           7   7.4004260070731998E-008   2.3148148148148148E-007  0.45277879910127156       0.31334369245935823        4.1162736742559227E-008   9.2592592592592583E-007  0.45277879910127156        9.8184269604064872E-002
 mort           2           8   7.4015527557128216E-008   2.3148148148148148E-007  0.45277879910127156       0.31337434770295514        4.1170791255718884E-008   9.2592592592592583E-007  0.45277879910127156        9.8203481798252626E-002
 graz           2           7           1   2.5120817489935003E-009   3.6930285421865039E-008  0.17200000000000001       0.10551060342408548       0.26679239741297944     
 graz           2           7           2   2.6283854671992874E-009   3.6930285421865039E-008  0.18000000000000002       0.10548903940208590       0.26679239741297944     
 graz           2           7           3   1.4625661832057192E-008   3.6930285421865039E-008   1.0000000000000000       0.10565895549823751       0.26679239741297944     
 graz           2           7           4   1.4630949329098898E-008   3.6930285421865039E-008   1.0000000000000000       0.10569715352449038       0.26679239741297944     
 graz           2           7           5   1.9654157366342310E-010   3.6930285421865039E-008  0.13500000000000001        1.0517473973821211E-002  0.26679239741297944     
 graz           2           7           6   2.3366654708527341E-009   3.6930285421865039E-008  0.16000000000000003       0.10550361576542182       0.26679239741297944     
 graz           2           8           1   1.2456985137205464E-008   4.3855584346938130E-008  0.85999999999999999       0.10551060342408548       0.31945266375580317     
 graz           2           8           2   1.3033715448498764E-008   4.3855584346938130E-008  0.90000000000000002       0.10548903940208590       0.31945266375580317     
 graz           2           8           3   2.9010465465421623E-009   4.3855584346938130E-008  0.20000000000000001       0.10565895549823751       0.31945266375580317     
 graz           2           8           4   2.9020953383991624E-009   4.3855584346938130E-008  0.20000000000000001       0.10569715352449038       0.31945266375580317     
 graz           2           8           5   9.7461615767448091E-010   4.3855584346938130E-008  0.67500000000000004        1.0517473973821211E-002  0.31945266375580317     
 graz           2           8           6   1.1587125718618097E-008   4.3855584346938130E-008  0.80000000000000004       0.10550361576542182       0.31945266375580317     
 prey           2           4           1   1.4969066886198964E-008
 prey           2           4           2   1.5662100915698051E-008
 prey           2           4           3   1.7526708378599354E-008
 prey           2           4           4   1.7533044667498060E-008
 prey           2           4           5   1.1711577313379040E-009
 prey           2           4           6   1.3923791189470830E-008
 pred           2           4           7   2.6474758633208452E-008
 pred           2           4           8   3.5664781666044633E-008
 mort           2           1   7.8582292930170471E-008   1.6534391534391535E-006  0.45044354995431624       0.10551060342408548        0.0000000000000000        0.0000000000000000       0.45044354995431624        1.1132487434914639E-002
 mort           2           2   7.8566232456260449E-008   1.6534391534391535E-006  0.45044354995431624       0.10548903940208590        0.0000000000000000        0.0000000000000000       0.45044354995431624        1.1127937433974831E-002
 mort           2           3   7.8692782736592628E-008   1.6534391534391535E-006  0.45044354995431624       0.10565895549823751        0.0000000000000000        0.0000000000000000       0.45044354995431624        1.1163814876978534E-002
 mort           2           4   7.8721231900856185E-008   1.6534391534391535E-006  0.45044354995431624       0.10569715352449038        0.0000000000000000        0.0000000000000000       0.45044354995431624        1.1171888263179689E-002
 mort           2           5   7.8332148037700960E-009   1.6534391534391535E-006  0.45044354995431624        1.0517473973821209E-002   0.0000000000000000        0.0000000000000000       0.45044354995431624        1.1061725879000649E-004
 mort           2           6   7.8577088654749948E-008   1.6534391534391535E-006  0.45044354995431624       0.10550361576542182        0.0000000000000000        0.0000000000000000       0.45044354995431624        1.1131012939577764E-002
 mort           2           7   8.0887154265483715E-008   2.3148148148148148E-007  0.45044354995431624       0.33278052822613452        4.6188348133573405E-008   9.2592592592592583E-007  0.45044354995431624       0.11074287996646512     
 mort           2           8   8.0899833129793366E-008   2.3148148148148148E-007  0.45044354995431624       0.33281372995330499        4.6197565075695243E-008   9.2592592592592583E-007  0.45044354995431624       0.11076497884543142     
 graz           2           7           1   2.8632134395883086E-009   4.2088695525011858E-008  0.17200000000000001       0.11025427694950442       0.27876332380108720     
 graz           2           7           2   2.9958085472018781E-009   4.2088695525011858E-008  0.18000000000000002       0.11023302333750792       0.27876332380108720     
 graz           2           7           3   1.6668355653790108E-008   4.2088695525011858E-008   1.0000000000000000       0.11039843754691576       0.27876332380108720     
 graz           2           7           4   1.6673929211048445E-008   4.2088695525011858E-008   1.0000000000000000       0.11043535252675414       0.27876332380108720     
 graz           2           7           5   2.2407158753822675E-010   4.2088695525011858E-008  0.13500000000000001        1.0993176254623697E-002  0.27876332380108720     
 graz           2           7           6   2.6633170858448947E-009   4.2088695525011858E-008  0.16000000000000003       0.11024859435610578       0.27876332380108720     
 graz           2           8           1   1.4193100195065054E-008   4.9967598105560110E-008  0.85999999999999999       0.11025427694950442       0.33381442665182054     
 graz           2           8           2   1.4850381144404761E-008   4.9967598105560110E-008  0.90000000000000002       0.11023302333750792       0.33381442665182054     
 graz           2           8           3   3.3050367619850019E-009   4.9967598105560110E-008  0.20000000000000001       0.11039843754691576       0.33381442665182054     
 graz           2           8           4   3.3061418986893320E-009   4.9967598105560110E-008  0.20000000000000001       0.11043535252675414       0.33381442665182054     
 graz           2           8           5   1.1107346901999113E-009   4.9967598105560110E-008  0.67500000000000004        1.0993176254623697E-002  0.33381442665182054     
 graz           2           8           6   1.3202203415216049E-008   4.9967598105560110E-008  0.80000000000000004       0.11024859435610578       0.33381442665182054     
 prey           2           5           1   1.7056313634653363E-008
 prey           2           5           2   1.7846189691606640E-008
 prey           2           5           3   1.9973392415775111E-008
 prey           2           5           4   1.9980071109737777E-008
 prey           2           5           5   1.3348062777381381E-009
 prey           2           5           6   1.5865520501060944E-008
 pred           2           5           7   3.0172392155940168E-008
 pred           2           5           8   4.0635196350515524E-008
 mort           2           1   8.1434252482844369E-008   1.6534391534391535E-006  0.44670771297317602       0.11025427694950442        0.0000000000000000        0.0000000000000000       0.44670771297317602        1.2156005585658021E-002
 mort           2           2   8.1418554479525302E-008   1.6534391534391535E-006  0.44670771297317602       0.11023302333750792        0.0000000000000000        0.0000000000000000       0.44670771297317602        1.2151319434127566E-002
 mort           2           3   8.1540730080017762E-008   1.6534391534391535E-006  0.44670771297317602       0.11039843754691576        0.0000000000000000        0.0000000000000000       0.44670771297317602        1.2187815012800260E-002
 mort           2           4   8.1567995632626979E-008   1.6534391534391535E-006  0.44670771297317602       0.11043535252675414        0.0000000000000000        0.0000000000000000       0.44670771297317602        1.2195967087708462E-002
 mort           2           5   8.1196042047188773E-009   1.6534391534391535E-006  0.44670771297317602        1.0993176254623696E-002   0.0000000000000000        0.0000000000000000       0.44670771297317602        1.2084992416522226E-004
 mort           2           6   8.1430055296500359E-008   1.6534391534391535E-006  0.44670771297317602       0.11024859435610578        0.0000000000000000        0.0000000000000000       0.44670771297317602        1.2154752557497157E-002
 mort           2           7   9.3541822032904498E-008   2.3148148148148148E-007  0.44670771297317602       0.36671126319168090        5.5622204046362777E-008   9.2592592592592583E-007  0.44670771297317602       0.13447715055163825     
 mort           2           8   9.3557196629301730E-008   2.3148148148148148E-007  0.44670771297317602       0.36674905930870949        5.5633670351788461E-008   9.2592592592592583E-007  0.44670771297317602       0.13450487250382331     
 graz           2           7           1   5.7150397170849462E-009   8.3818925472408245E-008  0.17200000000000001       0.20441593437976940       0.51566306947680962     
 graz           2           7           2   5.9779889889531663E-009   8.3818925472408245E-008  0.18000000000000002       0.20431796107358088       0.51566306947680962     
 graz           2           7           3   3.3181932069493995E-008   8.3818925472408245E-008   1.0000000000000000       0.20413882480226744       0.51566306947680962     
 graz           2           7           4   3.3187956824184093E-008   8.3818925472408245E-008   1.0000000000000000       0.20417588974289788       0.51566306947680962     
 graz           2           7           5   4.4397306424144412E-010   8.3818925472408245E-008  0.13500000000000001        2.0232371661000500E-002  0.51566306947680962     
 graz           2           7           6   5.3120348084505890E-009   8.3818925472408245E-008  0.16000000000000003       0.20425131906777655       0.51566306947680962     
 graz           2           8           1   2.8136577337099797E-008   9.8976219873466211E-008  0.85999999999999999       0.20441593437976940       0.61840471756725413     
 graz           2           8           2   2.9431142710204151E-008   9.8976219873466211E-008  0.90000000000000002       0.20431796107358088       0.61840471756725413     
 graz           2           8           3   6.5345197519916576E-009   9.8976219873466211E-008  0.20000000000000001       0.20413882480226744       0.61840471756725413     
 graz           2           8           4   6.5357062072722274E-009   9.8976219873466211E-008  0.20000000000000001       0.20417588974289788       0.61840471756725413     
 graz           2           8           5   2.1857910138882236E-009   9.8976219873466211E-008  0.67500000000000004        2.0232371661000500E-002  0.61840471756725413     
 graz           2           8           6   2.6152482853010161E-008   9.8976219873466211E-008  0.80000000000000004       0.20425131906777655       0.61840471756725413     
 prey           2           6           1   3.3851617054184742E-008
 prey           2           6           2   3.5409131699157315E-008
 prey           2           6           3   3.9716451821485651E-008
 prey           2           6           4   3.9723663031456323E-008
 prey           2           6           5   2.6297640781296675E-009
 prey           2           6           6   3.1464517661460753E-008
 pred           2           6           7   6.0075525746434536E-008
 pred           2           6           8   8.0487998494699367E-008
 mort           2           1   1.4988278185996290E-007   1.6534391534391535E-006  0.44345420890964010       0.20441593437976940        0.0000000000000000        0.0000000000000000       0.44345420890964010        4.1785874228354190E-002
 mort           2           2   1.4981094542644753E-007   1.6534391534391535E-006  0.44345420890964010       0.20431796107358088        0.0000000000000000        0.0000000000000000       0.44345420890964010        4.1745829217265315E-002
 mort           2           3   1.4967959831420822E-007   1.6534391534391535E-006  0.44345420890964010       0.20413882480226744        0.0000000000000000        0.0000000000000000       0.44345420890964010        4.1672659791650843E-002
 mort           2           4   1.4970677523868831E-007   1.6534391534391535E-006  0.44345420890964010       0.20417588974289788        0.0000000000000000        0.0000000000000000       0.44345420890964010        4.1687793952303993E-002
 mort           2           5   1.4834871642352512E-008   1.6534391534391535E-006  0.44345420890964010        2.0232371661000500E-002   0.0000000000000000        0.0000000000000000       0.44345420890964010        4.0934886302885614E-004
 mort           2           6   1.4976208187161267E-007   1.6534391534391535E-006  0.44345420890964010       0.20425131906777655        0.0000000000000000        0.0000000000000000       0.44345420890964010        4.1718601340926663E-002
 mort           2           7   1.1229712459332518E-007   2.3148148148148148E-007  0.44345420890964010       0.41269541536372639        6.9933347060742622E-008   9.2592592592592583E-007  0.44345420890964010       0.17031750586223865     
 mort           2           8   1.1232931732034358E-007   2.3148148148148148E-007  0.44345420890964010       0.41276831694892713        6.9958056335262551E-008   9.2592592592592583E-007  0.44345420890964010       0.17037768347684995     
 graz           2           7           1   8.8560936803594998E-009   1.2972850600080737E-007  0.17200000000000001       0.29738232955792449       0.74926737174713298     
 graz           2           7           2   9.2654514885881838E-009   1.2972850600080737E-007  0.18000000000000002       0.29730039461805047       0.74926737174713298     
 graz           2           7           3   5.1341119617838542E-008   1.2972850600080737E-007   1.0000000000000000       0.29652870401801779       0.74926737174713298     
 graz           2           7           4   5.1343854054591822E-008   1.2972850600080737E-007   1.0000000000000000       0.29654449718717157       0.74926737174713298     
 graz           2           7           5   6.8898175560210538E-010   1.2972850600080737E-007  0.13500000000000001        2.9476462185345654E-002  0.74926737174713298     
 graz           2           7           6   8.2330054038272324E-009   1.2972850600080737E-007  0.16000000000000003       0.29719385269818710       0.74926737174713298     
 graz           2           8           1   4.3326165675476505E-008   1.5239793729498205E-007  0.85999999999999999       0.29738232955792449       0.89958549295075629     
 graz           2           8           2   4.5328843702607081E-008   1.5239793729498205E-007  0.90000000000000002       0.29730039461805047       0.89958549295075629     
 graz           2           8           3   1.0046930101744962E-008   1.5239793729498205E-007  0.20000000000000001       0.29652870401801779       0.89958549295075629     
 graz           2           8           4   1.0047465202949073E-008   1.5239793729498205E-007  0.20000000000000001       0.29654449718717157       0.89958549295075629     
 graz           2           8           5   3.3706664324022515E-009   1.5239793729498205E-007  0.67500000000000004        2.9476462185345654E-002  0.89958549295075629     
 graz           2           8           6   4.0277866179802200E-008   1.5239793729498205E-007  0.80000000000000004       0.29719385269818710       0.89958549295075629     
 prey           2           7           1   5.2182259355836004E-008
 prey           2           7           2   5.4594295191195265E-008
 prey           2           7           3   6.1388049719583499E-008
 prey           2           7           4   6.1391319257540900E-008
 prey           2           7           5   4.0596481880043566E-009
 prey           2           7           6   4.8510871583629429E-008
 pred           2           7           7   9.2965391869295105E-008
 pred           2           7           8   1.2392778936645507E-007
 mort           2           1   2.1651901250065462E-007   1.6534391534391535E-006  0.44034458589069997       0.29738232955792449        0.0000000000000000        0.0000000000000000       0.44034458589069997        8.8436249933298003E-002
 mort           2           2   2.1645935706552103E-007   1.6534391534391535E-006  0.44034458589069997       0.29730039461805047        0.0000000000000000        0.0000000000000000       0.44034458589069997        8.8387524640048537E-002
 mort           2           3   2.1589750227433858E-007   1.6534391534391535E-006  0.44034458589069997       0.29652870401801779        0.0000000000000000        0.0000000000000000       0.44034458589069997        8.7929272306605202E-002
 mort           2           4   2.1590900101198897E-007   1.6534391534391535E-006  0.44034458589069997       0.29654449718717157        0.0000000000000000        0.0000000000000000       0.44034458589069997        8.7938638811992403E-002
 mort           2           5   2.1461310407620553E-008   1.6534391534391535E-006  0.44034458589069997        2.9476462185345654E-002   0.0000000000000000        0.0000000000000000       0.44034458589069997        8.6886182296411229E-004
 mort           2           6   2.1638178570708481E-007   1.6534391534391535E-006  0.44034458589069997       0.29719385269818710        0.0000000000000000        0.0000000000000000       0.44034458589069997        8.8324186081591732E-002
 mort           2           7   1.3248246920684284E-007   2.3148148148148148E-007  0.44034458589069997       0.45857071030585400        8.5739615148686488E-008   9.2592592592592583E-007  0.44034458589069997       0.21028709635041548     
 mort           2           8   1.3253494692110548E-007   2.3148148148148148E-007  0.44034458589069997       0.45868097627397580        8.5780853274506889E-008   9.2592592592592583E-007  0.44034458589069997       0.21038823799564754     
 graz           2           7           1   4.3109775878364754E-009   6.3079658532558370E-008  0.17200000000000001       0.19431872986561727       0.48905384609051000     
 graz           2           7           2   4.5109874743447501E-009   6.3079658532558370E-008  0.18000000000000002       0.19429716376932224       0.48905384609051000     
 graz           2           7           3   2.4959829257751482E-008   6.3079658532558370E-008   1.0000000000000000       0.19351246947485221       0.48905384609051000     
 graz           2           7           4   2.4952526410414174E-008   6.3079658532558370E-008   1.0000000000000000       0.19345585081741482       0.48905384609051000     
 graz           2           7           5   3.3648186227788400E-010   6.3079658532558370E-008  0.13500000000000001        1.9323920205123621E-002  0.48905384609051000     
 graz           2           7           6   4.0088559399336141E-009   6.3079658532558370E-008  0.16000000000000003       0.19425303471991986       0.48905384609051000     
 graz           2           8           1   2.1235272053581705E-008   7.4694741513799937E-008  0.85999999999999999       0.19431872986561727       0.58782129304966857     
 graz           2           8           2   2.2220492752801522E-008   7.4694741513799937E-008  0.90000000000000002       0.19429716376932224       0.58782129304966857     
 graz           2           8           3   4.9179449802271280E-009   7.4694741513799937E-008  0.20000000000000001       0.19351246947485221       0.58782129304966857     
 graz           2           8           4   4.9165060680842212E-009   7.4694741513799937E-008  0.20000000000000001       0.19345585081741482       0.58782129304966857     
 graz           2           8           5   1.6574625455551580E-009   7.4694741513799937E-008  0.67500000000000004        1.9323920205123621E-002  0.58782129304966857     
 graz           2           8           6   1.9747063113550204E-008   7.4694741513799937E-008  0.80000000000000004       0.19425303471991986       0.58782129304966857     
 prey           2           8           1   2.5546249641418180E-008
 prey           2           8           2   2.6731480227146272E-008
 prey           2           8           3   2.9877774237978610E-008
 prey           2           8           4   2.9869032478498393E-008
 prey           2           8           5   1.9939444078330418E-009
 prey           2           8           6   2.3755919053483819E-008
 pred           2           8           7   4.5196805680289613E-008
 pred           2           8           8   6.0739238315871082E-008
 mort           2           1   1.4048374008183782E-007   1.6534391534391535E-006  0.43724331699910479       0.19431872986561727        0.0000000000000000        0.0000000000000000       0.43724331699910479        3.7759768776586738E-002
 mort           2           2   1.4046814875994832E-007   1.6534391534391535E-006  0.43724331699910479       0.19429716376932224        0.0000000000000000        0.0000000000000000       0.43724331699910479        3.7751387848802824E-002
 mort           2           3   1.3990084992373081E-007   1.6534391534391535E-006  0.43724331699910479       0.19351246947485221        0.0000000000000000        0.0000000000000000       0.43724331699910479        3.7447075842255609E-002
 mort           2           4   1.3985991716979239E-007   1.6534391534391535E-006  0.43724331699910479       0.19345585081741482        0.0000000000000000        0.0000000000000000       0.43724331699910479        3.7425166215489858E-002
 mort           2           5   1.3970328981339739E-008   1.6534391534391535E-006  0.43724331699910479        1.9323920205123621E-002   0.0000000000000000        0.0000000000000000       0.43724331699910479        3.7341389209398490E-004
 mort           2           6   1.4043624543333339E-007   1.6534391534391535E-006  0.43724331699910479       0.19425303471991986        0.0000000000000000        0.0000000000000000       0.43724331699910479        3.7734241497898391E-002
 mort           2           7   7.7775539786084946E-008   2.3148148148148148E-007  0.43724331699910479       0.33077646430257107        4.4296419777545090E-008   9.2592592592592583E-007  0.43724331699910479       0.10941306933651007     
 mort           2           8   7.7795918234460769E-008   2.3148148148148148E-007  0.43724331699910479       0.33083168011825137        4.4311209627217478E-008   9.2592592592592583E-007  0.43724331699910479       0.10944960056986500     
 graz           2           7           1   1.2810461570161843E-009   1.8743163453584291E-008  0.17200000000000001        9.1334550974107934E-002  0.22984849239080019     
 graz           2           7           2   1.3405910901038332E-009   1.8743163453584291E-008  0.18000000000000002        9.1331920609633313E-002  0.22984849239080019     
 graz           2           7           3   7.4158137091276090E-009   1.8743163453584291E-008   1.0000000000000000        9.0940550410024384E-002  0.22984849239080019     
 graz           2           7           4   7.4140760692855957E-009   1.8743163453584291E-008   1.0000000000000000        9.0919241632613682E-002  0.22984849239080019     
 graz           2           7           5   1.0011418914676023E-010   1.8743163453584291E-008  0.13500000000000001        9.0941189972566661E-003  0.22984849239080019     
 graz           2           7           6   1.1915222389043078E-009   1.8743163453584291E-008  0.16000000000000003        9.1323161289074362E-002  0.22984849239080019     
 graz           2           8           1   6.3583396160573480E-009   2.2367392390644823E-008  0.85999999999999999        9.1334550974107934E-002  0.27631546014933817     
 graz           2           8           2   6.6538847101299408E-009   2.2367392390644823E-008  0.90000000000000002        9.1331920609633313E-002  0.27631546014933817     
 graz           2           8           3   1.4723048606421626E-009   2.2367392390644823E-008  0.20000000000000001        9.0940550410024384E-002  0.27631546014933817     
 graz           2           8           4   1.4719598768432447E-009   2.2367392390644823E-008  0.20000000000000001        9.0919241632613682E-002  0.27631546014933817     
 graz           2           8           5   4.9690638506264385E-010   2.2367392390644823E-008  0.67500000000000004        9.0941189972566661E-003  0.27631546014933817     
 graz           2           8           6   5.9139969419094828E-009   2.2367392390644823E-008  0.80000000000000004        9.1323161289074362E-002  0.27631546014933817     
 prey           2           9           1   7.6393857730735327E-009
 prey           2           9           2   7.9944758002337743E-009
 prey           2           9           3   8.8881185697697710E-009
 prey           2           9           4   8.8860359461288411E-009
 prey           2           9           5   5.9702057420940409E-010
 prey           2           9           6   7.1055191808137904E-009
 pred           2           9           7   1.3429221292798999E-008
 pred           2           9           8   1.8188340386264401E-008
 mort           2           1   6.5328807708239535E-008   1.6534391534391535E-006  0.43259492142402983        9.1334550974107934E-002   0.0000000000000000        0.0000000000000000       0.43259492142402983        8.3420002016419206E-003
 mort           2           2   6.5326926289070861E-008   1.6534391534391535E-006  0.43259492142402983        9.1331920609633313E-002   0.0000000000000000        0.0000000000000000       0.43259492142402983        8.3415197222443619E-003
 mort           2           3   6.5046991168787243E-008   1.6534391534391535E-006  0.43259492142402983        9.0940550410024384E-002   0.0000000000000000        0.0000000000000000       0.43259492142402983        8.2701837088781857E-003
 mort           2           4   6.5031749652766032E-008   1.6534391534391535E-006  0.43259492142402983        9.0919241632613682E-002   0.0000000000000000        0.0000000000000000       0.43259492142402983        8.2663084990495933E-003
 mort           2           5   6.5047448628290741E-009   1.6534391534391535E-006  0.43259492142402983        9.0941189972566644E-003   0.0000000000000000        0.0000000000000000       0.43259492142402983        8.2703000336264556E-005
 mort           2           6   6.5320661015279648E-008   1.6534391534391535E-006  0.43259492142402983        9.1323161289074362E-002   0.0000000000000000        0.0000000000000000       0.43259492142402983        8.3399197878302900E-003
 mort           2           7   3.6815226999789935E-008   2.3148148148148148E-007  0.43259492142402983       0.20292757303400455        1.6494523872147742E-008   9.2592592592592583E-007  0.43259492142402983        4.1179599897471247E-002
 mort           2           8   3.6819672575653950E-008   2.3148148148148148E-007  0.43259492142402983       0.20294449501601444        1.6497274919428903E-008   9.2592592592592583E-007  0.43259492142402983        4.1186468057305109E-002
 graz           2           7           1   6.3428685252870738E-010   9.2934929824731604E-009  0.17200000000000001        5.6263183673770679E-002  0.14179013500939755     
 graz           2           7           2   6.6377722636779298E-010   9.2934929824731604E-009  0.18000000000000002        5.6262222467764758E-002  0.14179013500939755     
 graz           2           7           3   3.6781101166192838E-009   9.2934929824731604E-009   1.0000000000000000        5.6116653985581827E-002  0.14179013500939755     
 graz           2           7           4   3.6776403987826716E-009   9.2934929824731604E-009   1.0000000000000000        5.6109487535292886E-002  0.14179013500939755     
 graz           2           7           5   4.9672986789835753E-011   9.2934929824731604E-009  0.13500000000000001        5.6137561868476521E-003  0.14179013500939755     
 graz           2           7           6   5.9000540138486712E-010   9.2934929824731604E-009  0.16000000000000003        5.6260429795076033E-002  0.14179013500939755     
 graz           2           8           1   3.1569633785823415E-009   1.1108941289797845E-008  0.85999999999999999        5.6263183673770679E-002  0.17026519574678903     
 graz           2           8           2   3.3037424421235998E-009   1.1108941289797845E-008  0.90000000000000002        5.6262222467764758E-002  0.17026519574678903     
 graz           2           8           3   7.3226546596500799E-010   1.1108941289797845E-008  0.20000000000000001        5.6116653985581827E-002  0.17026519574678903     
 graz           2           8           4   7.3217195105120911E-010   1.1108941289797845E-008  0.20000000000000001        5.6109487535292886E-002  0.17026519574678903     
 graz           2           8           5   2.4723167376895693E-010   1.1108941289797845E-008  0.67500000000000004        5.6137561868476521E-003  0.17026519574678903     
 graz           2           8           6   2.9365663783067290E-009   1.1108941289797845E-008  0.80000000000000004        5.6260429795076033E-002  0.17026519574678903     
 prey           2          10           1   3.7912502311110488E-009
 prey           2          10           2   3.9675196684913929E-009
 prey           2          10           3   4.4103755825842921E-009
 prey           2          10           4   4.4098123498338806E-009
 prey           2          10           5   2.9690466055879267E-010
 prey           2          10           6   3.5265717796915959E-009
 pred           2          10           7   6.6596973991500463E-009
 pred           2          10           8   9.0335967735398973E-009
 mort           2           1   3.9813938597297838E-008   1.6534391534391535E-006  0.42797915957378241        5.6263183673770679E-002   0.0000000000000000        0.0000000000000000       0.42797915957378241        3.1655458371084555E-003
 mort           2           2   3.9813258411883499E-008   1.6534391534391535E-006  0.42797915957378241        5.6262222467764758E-002   0.0000000000000000        0.0000000000000000       0.42797915957378241        3.1654376770122537E-003
 mort           2           3   3.9710248695175361E-008   1.6534391534391535E-006  0.42797915957378241        5.6116653985581827E-002   0.0000000000000000        0.0000000000000000       0.42797915957378241        3.1490788545375167E-003
 mort           2           4   3.9705177446214069E-008   1.6534391534391535E-006  0.42797915957378241        5.6109487535292886E-002   0.0000000000000000        0.0000000000000000       0.42797915957378241        3.1482745914731877E-003
 mort           2           5   3.9725043897142517E-009   1.6534391534391535E-006  0.42797915957378241        5.6137561868476512E-003   0.0000000000000000        0.0000000000000000       0.42797915957378241        3.1514258525370284E-005
 mort           2           6   3.9811989849464996E-008   1.6534391534391535E-006  0.42797915957378241        5.6260429795076033E-002   0.0000000000000000        0.0000000000000000       0.42797915957378241        3.1652359607266790E-003
 mort           2           7   2.6571104857742948E-008   2.3148148148148148E-007  0.42797915957378241       0.16253581912356865        1.0468803175071370E-008   9.2592592592592583E-007  0.42797915957378241        2.6417892498169424E-002
 mort           2           8   2.6573039413554107E-008   2.3148148148148148E-007  0.42797915957378241       0.16254430807477374        1.0469896736854191E-008   9.2592592592592583E-007  0.42797915957378241        2.6420652087506956E-002
 graz           2           7           1   4.5881953868650661E-010   6.7288949125287106E-009  0.17200000000000001        4.3939348358180357E-002  0.11083678009323551     
 graz           2           7           2   4.8015337693322819E-010   6.7288949125287106E-009  0.18000000000000002        4.3938743898086594E-002  0.11083678009323551     
 graz           2           7           3   2.6636523090808135E-009   6.7288949125287106E-009   1.0000000000000000        4.3875056612450766E-002  0.11083678009323551     
 graz           2           7           4   2.6634917326033425E-009   6.7288949125287106E-009   1.0000000000000000        4.3872411634344709E-002  0.11083678009323551     
 graz           2           7           5   3.5975436464218991E-011   6.7288949125287106E-009  0.13500000000000001        4.3894737677901731E-003  0.11083678009323551     
 graz           2           7           6   4.2680251876060078E-010   6.7288949125287106E-009  0.16000000000000003        4.3938694178285963E-002  0.11083678009323551     
 graz           2           8           1   2.2859021370403723E-009   8.0453385219765881E-009  0.85999999999999999        4.3939348358180357E-002  0.13299605288155927     
 graz           2           8           2   2.3921902575922205E-009   8.0453385219765881E-009  0.90000000000000002        4.3938743898086594E-002  0.13299605288155927     
 graz           2           8           3   5.3082730723205993E-010   8.0453385219765881E-009  0.20000000000000001        4.3875056612450766E-002  0.13299605288155927     
 graz           2           8           4   5.3079530666695240E-010   8.0453385219765881E-009  0.20000000000000001        4.3872411634344709E-002  0.13299605288155927     
 graz           2           8           5   1.7923457952540946E-010   8.0453385219765881E-009  0.67500000000000004        4.3894737677901731E-003  0.13299605288155927     
 graz           2           8           6   2.1263889339195731E-009   8.0453385219765881E-009  0.80000000000000004        4.3938694178285963E-002  0.13299605288155927     
 prey           2          11           1   2.7447216757268789E-009
 prey           2          11           2   2.8723436345254487E-009
 prey           2          11           3   3.1944796163128733E-009
 prey           2          11           4   3.1942870392702950E-009
 prey           2          11           5   2.1521001598962846E-010
 prey           2          11           6   2.5531914526801740E-009
 pred           2          11           7   4.8224155816851470E-009
 pred           2          11           8   6.5424330789711711E-009
 mort           2           1   3.0772548539521072E-008   1.6534391534391535E-006  0.42356653095965680        4.3939348358180357E-002   0.0000000000000000        0.0000000000000000       0.42356653095965680        1.9306663341415269E-003
 mort           2           2   3.0772125211040551E-008   1.6534391534391535E-006  0.42356653095965680        4.3938743898086594E-002   0.0000000000000000        0.0000000000000000       0.42356653095965680        1.9306132153416419E-003
 mort           2           3   3.0727522362755163E-008   1.6534391534391535E-006  0.42356653095965680        4.3875056612450766E-002   0.0000000000000000        0.0000000000000000       0.42356653095965680        1.9250205927457598E-003
 mort           2           4   3.0725669974856939E-008   1.6534391534391535E-006  0.42356653095965680        4.3872411634344709E-002   0.0000000000000000        0.0000000000000000       0.42356653095965680        1.9247885026133849E-003
 mort           2           5   3.0741305829386531E-009   1.6534391534391535E-006  0.42356653095965680        4.3894737677901722E-003   0.0000000000000000        0.0000000000000000       0.42356653095965680        1.9267479958118049E-005
 mort           2           6   3.0772090390201478E-008   1.6534391534391535E-006  0.42356653095965680        4.3938694178285963E-002   0.0000000000000000        0.0000000000000000       0.42356653095965680        1.9306088460929408E-003
 mort           2           7   2.3823409740413696E-008   2.3148148148148148E-007  0.42356653095965680       0.15135008783581910        8.9838653735022994E-009   9.2592592592592583E-007  0.42356653095965680        2.2906849087910158E-002
 mort           2           8   2.3824748290886988E-008   2.3148148148148148E-007  0.42356653095965680       0.15135626291337675        8.9845984711562585E-009   9.2592592592592583E-007  0.42356653095965680        2.2908718323103226E-002
 graz           2           7           1   3.0532829297313202E-010   4.4781462250220612E-009  0.17200000000000001        3.1725091333440168E-002   8.0031793375277632E-002
 graz           2           7           2   3.1952597196938357E-010   4.4781462250220612E-009  0.18000000000000002        3.1724730231502678E-002   8.0031793375277632E-002
 graz           2           7           3   1.7726873249597959E-009   4.4781462250220612E-009   1.0000000000000000        3.1680820272780866E-002   8.0031793375277632E-002
 graz           2           7           4   1.7726370640762765E-009   4.4781462250220612E-009   1.0000000000000000        3.1679922028631936E-002   8.0031793375277632E-002
 graz           2           7           5   2.3941123368315221E-011   4.4781462250220612E-009  0.13500000000000001        3.1693852641257866E-003   8.0031793375277632E-002
 graz           2           7           6   2.8402644767515730E-010   4.4781462250220612E-009  0.16000000000000003        3.1725105701160286E-002   8.0031793375277632E-002
 graz           2           8           1   1.5226805145213429E-009   5.3592330793713258E-009  0.85999999999999999        3.1725091333440168E-002   9.6027403829606658E-002
 graz           2           8           2   1.5934847264353809E-009   5.3592330793713258E-009  0.90000000000000002        3.1724730231502678E-002   9.6027403829606658E-002
 graz           2           8           3   3.5361759917778343E-010   5.3592330793713258E-009  0.20000000000000001        3.1680820272780866E-002   9.6027403829606658E-002
 graz           2           8           4   3.5360757308197256E-010   5.3592330793713258E-009  0.20000000000000001        3.1679922028631936E-002   9.6027403829606658E-002
 graz           2           8           5   1.1939503441920814E-010   5.3592330793713258E-009  0.67500000000000004        3.1693852641257866E-003   9.6027403829606658E-002
 graz           2           8           6   1.4164476317356377E-009   5.3592330793713258E-009  0.80000000000000004        3.1725105701160286E-002   9.6027403829606658E-002
 prey           2          12           1   1.8280088074944749E-009
 prey           2          12           2   1.9130106984047644E-009
 prey           2          12           3   2.1263049241375793E-009
 prey           2          12           4   2.1262446371582490E-009
 prey           2          12           5   1.4333615778752337E-010
 prey           2          12           6   1.7004740794107951E-009
 pred           2          12           7   3.2093882456232535E-009
 pred           2          12           8   4.3581089807230365E-009
 mort           2           1   2.1997349795471782E-008   1.6534391534391535E-006  0.41935252499267400        3.1725091333440168E-002   0.0000000000000000        0.0000000000000000       0.41935252499267400        1.0064814201151205E-003
 mort           2           2   2.1997099416818895E-008   1.6534391534391535E-006  0.41935252499267400        3.1724730231502678E-002   0.0000000000000000        0.0000000000000000       0.41935252499267400        1.0064585082616199E-003
 mort           2           3   2.1966653398197341E-008   1.6534391534391535E-006  0.41935252499267400        3.1680820272780866E-002   0.0000000000000000        0.0000000000000000       0.41935252499267400        1.0036743731562431E-003
 mort           2           4   2.1966030579163092E-008   1.6534391534391535E-006  0.41935252499267400        3.1679922028631936E-002   0.0000000000000000        0.0000000000000000       0.41935252499267400        1.0036174597401991E-003
 mort           2           5   2.1975689702144859E-009   1.6534391534391535E-006  0.41935252499267400        3.1693852641257853E-003   0.0000000000000000        0.0000000000000000       0.41935252499267400        1.0045002952457673E-005
 mort           2           6   2.1997359757673685E-008   1.6534391534391535E-006  0.41935252499267400        3.1725105701160286E-002   0.0000000000000000        0.0000000000000000       0.41935252499267400        1.0064823317497930E-003
 mort           2           7   2.1238988465238734E-008   2.3148148148148148E-007  0.41935252499267400       0.14018647388420186        7.6307588834888247E-009   9.2592592592592583E-007  0.41935252499267400        1.9652247460086009E-002
 mort           2           8   2.1239838414695924E-008   2.3148148148148148E-007  0.41935252499267400       0.14019060105887912        7.6312081984270375E-009   9.2592592592592583E-007  0.41935252499267400        1.9653404625249799E-002
 graz           2           7           1   2.1930624785056325E-010   3.2175367896496398E-009  0.17200000000000001        2.4690234673005518E-002   6.2305470727186077E-002
 graz           2           7           2   2.2950428921917293E-010   3.2175367896496398E-009  0.18000000000000002        2.4689992701711516E-002   6.2305470727186077E-002
 graz           2           7           3   1.2737671307284430E-009   3.2175367896496398E-009   1.0000000000000000        2.4665657571391646E-002   6.2305470727186077E-002
 graz           2           7           4   1.2737502066680662E-009   3.2175367896496398E-009   1.0000000000000000        2.4665329848161943E-002   6.2305470727186077E-002
 graz           2           7           5   1.7201680974133025E-011   3.2175367896496398E-009  0.13500000000000001        2.4674012507767623E-003   6.2305470727186077E-002
 graz           2           7           6   2.0400723420926110E-010   3.2175367896496398E-009  0.16000000000000003        2.4690406804453734E-002   6.2305470727186077E-002
 graz           2           8           1   1.0943119761848993E-009   3.8517893057342916E-009  0.85999999999999999        2.4690234673005518E-002   7.4738614022073130E-002
 graz           2           8           2   1.1451989842509121E-009   3.8517893057342916E-009  0.90000000000000002        2.4689992701711516E-002   7.4738614022073130E-002
 graz           2           8           3   2.5423783219830997E-010   3.8517893057342916E-009  0.20000000000000001        2.4665657571391646E-002   7.4738614022073130E-002
 graz           2           8           4   2.5423445423673564E-010   3.8517893057342916E-009  0.20000000000000001        2.4665329848161943E-002   7.4738614022073130E-002
 graz           2           8           5   8.5834332970451909E-011   3.8517893057342916E-009  0.67500000000000004        2.4674012507767623E-003   7.4738614022073130E-002
 graz           2           8           6   1.0179717258929829E-009   3.8517893057342916E-009  0.80000000000000004        2.4690406804453734E-002   7.4738614022073130E-002
 prey           2          13           1   1.3136182240354626E-009
 prey           2          13           2   1.3747032734700850E-009
 prey           2          13           3   1.5280049629267531E-009
 prey           2          13           4   1.5279846609048018E-009
 prey           2          13           5   1.0303601394458493E-010
 prey           2          13           6   1.2219789601022439E-009
 pred           2          13           7   2.3060216508184596E-009
 pred           2          13           8   3.1322786732309380E-009
 mort           2           1   1.6949337749525469E-008   1.6534391534391535E-006  0.41518274761967522        2.4690234673005518E-002   0.0000000000000000        0.0000000000000000       0.41518274761967522        6.0960768820808391E-004
 mort           2           2   1.6949171641214145E-008   1.6534391534391535E-006  0.41518274761967522        2.4689992701711516E-002   0.0000000000000000        0.0000000000000000       0.41518274761967522        6.0959573961056788E-004
 mort           2           3   1.6932466075291715E-008   1.6534391534391535E-006  0.41518274761967522        2.4665657571391646E-002   0.0000000000000000        0.0000000000000000       0.41518274761967522        6.0839466342915000E-004
 mort           2           4   1.6932241100042102E-008   1.6534391534391535E-006  0.41518274761967522        2.4665329848161943E-002   0.0000000000000000        0.0000000000000000       0.41518274761967522        6.0837849651862843E-004
 mort           2           5   1.6938201567091913E-009   1.6534391534391535E-006  0.41518274761967522        2.4674012507767610E-003   0.0000000000000000        0.0000000000000000       0.41518274761967522        6.0880689323347251E-006
 mort           2           6   1.6949455914220614E-008   1.6534391534391535E-006  0.41518274761967522        2.4690406804453734E-002   0.0000000000000000        0.0000000000000000       0.41518274761967522        6.0961618816941527E-004
 mort           2           7   1.9049339571026560E-008   2.3148148148148148E-007  0.41518274761967522       0.13029857861177205        6.5267187657085594E-009   9.2592592592592583E-007  0.41518274761967522        1.6977719588248140E-002
 mort           2           8   1.9049923135011884E-008   2.3148148148148148E-007  0.41518274761967522       0.13030155159197429        6.5270166051362471E-009   9.2592592592592583E-007  0.41518274761967522        1.6978494347275937E-002
 graz           2           7           1   1.5879881024177893E-010   2.3305549498862878E-009  0.17200000000000001        1.9383202743856447E-002   4.8928971654492850E-002
 graz           2           7           2   1.6618343192408982E-010   2.3305549498862878E-009  0.18000000000000002        1.9383043011224212E-002   4.8928971654492850E-002
 graz           2           7           3   9.2269690867690891E-010   2.3305549498862878E-009   1.0000000000000000        1.9371613998006545E-002   4.8928971654492850E-002
 graz           2           7           4   9.2269690306097904E-010   2.3305549498862878E-009   1.0000000000000000        1.9371613880102577E-002   4.8928971654492850E-002
 graz           2           7           5   1.2457247036043139E-011   2.3305549498862878E-009  0.13500000000000001        1.9372918411534920E-003   4.8928971654492850E-002
 graz           2           7           6   1.4772164894648790E-010   2.3305549498862878E-009  0.16000000000000003        1.9383442274152101E-002   4.8928971654492850E-002
 graz           2           8           1   7.9273071077935455E-010   2.7904374543745291E-009  0.85999999999999999        1.9383202743856447E-002   5.8677364457540446E-002
 graz           2           8           2   8.2959507006606420E-010   2.7904374543745291E-009  0.90000000000000002        1.9383043011224212E-002   5.8677364457540446E-002
 graz           2           8           3   1.8424575729142825E-010   2.7904374543745291E-009  0.20000000000000001        1.9371613998006545E-002   5.8677364457540446E-002
 graz           2           8           4   1.8424575617002939E-010   2.7904374543745291E-009  0.20000000000000001        1.9371613880102577E-002   5.8677364457540446E-002
 graz           2           8           5   6.2187130257468229E-011   2.7904374543745291E-009  0.67500000000000004        1.9372918411534920E-003   5.8677364457540446E-002
 graz           2           8           6   7.3743302981018476E-010   2.7904374543745291E-009  0.80000000000000004        1.9383442274152101E-002   5.8677364457540446E-002
 prey           2          14           1   9.5152952102113343E-010
 prey           2          14           2   9.9577850199015394E-010
 prey           2          14           3   1.1069426659683372E-009
 prey           2          14           4   1.1069426592310084E-009
 prey           2          14           5   7.4644377293511366E-011
 prey           2          14           6   8.8515467875667263E-010
 pred           2          14           7   1.6703795046496705E-009
 pred           2          14           8   2.2691991148457696E-009
 mort           2           1   1.3204783946095530E-008   1.6534391534391535E-006  0.41201928474538807        1.9383202743856447E-002   0.0000000000000000        0.0000000000000000       0.41201928474538807        3.7570854860944410E-004
 mort           2           2   1.3204675128428724E-008   1.6534391534391535E-006  0.41201928474538807        1.9383043011224212E-002   0.0000000000000000        0.0000000000000000       0.41201928474538807        3.7570235637496773E-004
 mort           2           3   1.3196889126690485E-008   1.6534391534391535E-006  0.41201928474538807        1.9371613998006545E-002   0.0000000000000000        0.0000000000000000       0.41201928474538807        3.7525942888776311E-004
 mort           2           4   1.3196889046368544E-008   1.6534391534391535E-006  0.41201928474538807        1.9371613880102577E-002   0.0000000000000000        0.0000000000000000       0.41201928474538807        3.7525942431978284E-004
 mort           2           5   1.3197777756864041E-009   1.6534391534391535E-006  0.41201928474538807        1.9372918411534907E-003   0.0000000000000000        0.0000000000000000       0.41201928474538807        3.7530996777998817E-006
 mort           2           6   1.3204947125826171E-008   1.6534391534391535E-006  0.41201928474538807        1.9383442274152101E-002   0.0000000000000000        0.0000000000000000       0.41201928474538807        3.7571783439538679E-004
 mort           2           7   1.7095203506544506E-008   2.3148148148148148E-007  0.41201928474538807       0.12083647391959294        5.5704448131404737E-009   9.2592592592592583E-007  0.41201928474538807        1.4601453429320465E-002
 mort           2           8   1.7095608410708658E-008   2.3148148148148148E-007  0.41201928474538807       0.12083863255966237        5.5706438373654056E-009   9.2592592592592583E-007  0.41201928474538807        1.4601975118889096E-002
 graz           2           7           1   9.4047777872522211E-011   1.3800980168071253E-009  0.17200000000000001        1.2787590934368910E-002   3.2275915895596724E-002
 graz           2           7           2   9.8421364841854674E-011   1.3800980168071253E-009  0.18000000000000002        1.2787496311774605E-002   3.2275915895596724E-002
 graz           2           7           3   5.4638249480442015E-010   1.3800980168071253E-009   1.0000000000000000        1.2778074625404194E-002   3.2275915895596724E-002
 graz           2           7           4   5.4638249480345256E-010   1.3800980168071253E-009   1.0000000000000000        1.2778074625381565E-002   3.2275915895596724E-002
 graz           2           7           5   7.3766084465342812E-012   1.3800980168071253E-009  0.13500000000000001        1.2778845115594716E-003   3.2275915895596724E-002
 graz           2           7           6   8.7487276038341338E-011   1.3800980168071253E-009  0.16000000000000003        1.2787732868247192E-002   3.2275915895596724E-002
 graz           2           8           1   4.6974340593051857E-010   1.6534740562151892E-009  0.85999999999999999        1.2787590934368910E-002   3.8710063074211959E-002
 graz           2           8           2   4.9158829887304296E-010   1.6534740562151892E-009  0.90000000000000002        1.2787496311774605E-002   3.8710063074211959E-002
 graz           2           8           3   1.0916135600700039E-010   1.6534740562151892E-009  0.20000000000000001        1.2778074625404194E-002   3.8710063074211959E-002
 graz           2           8           4   1.0916135600680707E-010   1.6534740562151892E-009  0.20000000000000001        1.2778074625381565E-002   3.8710063074211959E-002
 graz           2           8           5   3.6844179142516887E-011   1.6534740562151892E-009  0.67500000000000004        1.2778845115594716E-003   3.8710063074211959E-002
 graz           2           8           6   4.3697546025530311E-010   1.6534740562151892E-009  0.80000000000000004        1.2787732868247192E-002   3.8710063074211959E-002
 prey           2          15           1   5.6379118380304078E-010
 prey           2          15           2   5.9000966371489765E-010
 prey           2          15           3   6.5554385081142053E-010
 prey           2          15           4   6.5554385081025958E-010
 prey           2          15           5   4.4220787589051172E-011
 prey           2          15           6   5.2446273629364446E-010
 pred           2          15           7   9.8914520256599921E-010
 pred           2          15           8   1.3446115161735319E-009
 mort           2           1   8.6450593759097243E-009   1.6534391534391535E-006  0.40887544318434510        1.2787590934368908E-002   0.0000000000000000        0.0000000000000000       0.40887544318434510        1.6352248190475388E-004
 mort           2           2   8.6449954062417651E-009   1.6534391534391535E-006  0.40887544318434510        1.2787496311774603E-002   0.0000000000000000        0.0000000000000000       0.40887544318434510        1.6352006192364908E-004
 mort           2           3   8.6386258688901693E-009   1.6534391534391535E-006  0.40887544318434510        1.2778074625404192E-002   0.0000000000000000        0.0000000000000000       0.40887544318434510        1.6327919113239849E-004
 mort           2           4   8.6386258688748697E-009   1.6534391534391535E-006  0.40887544318434510        1.2778074625381563E-002   0.0000000000000000        0.0000000000000000       0.40887544318434510        1.6327919113182018E-004
 mort           2           5   8.6391467592971038E-010   1.6534391534391535E-006  0.40887544318434510        1.2778845115594703E-003   0.0000000000000000        0.0000000000000000       0.40887544318434510        1.6329888248835860E-006
 mort           2           6   8.6451553304027559E-009   1.6534391534391535E-006  0.40887544318434510        1.2787732868247191E-002   0.0000000000000000        0.0000000000000000       0.40887544318434510        1.6352611190964954E-004
 mort           2           7   1.4816272810534151E-008   2.3148148148148148E-007  0.40887544318434510       0.10900977054023628        4.4988148843621902E-009   9.2592592592592583E-007  0.40887544318434510        1.1883130073234965E-002
 mort           2           8   1.4816499763222225E-008   2.3148148148148148E-007  0.40887544318434510       0.10901105140383542        4.4989206070336522E-009   9.2592592592592583E-007  0.40887544318434510        1.1883409328169649E-002
 graz           2           7           1   4.0243040076476943E-011   5.9018103394676745E-010  0.17200000000000001        6.1747117986282506E-003   1.5575414265784312E-002
 graz           2           7           2   4.2114533322554508E-011   5.9018103394676745E-010  0.18000000000000002        6.1746713237985987E-003   1.5575414265784312E-002
 graz           2           7           3   2.3361685520159898E-010   5.9018103394676745E-010   1.0000000000000000        6.1653612873687341E-003   1.5575414265784312E-002
 graz           2           7           4   2.3361685520159882E-010   5.9018103394676745E-010   1.0000000000000000        6.1653612873687307E-003   1.5575414265784312E-002
 graz           2           7           5   3.1539959471451071E-012   5.9018103394676745E-010  0.13500000000000001        6.1656904932891928E-004   1.5575414265784312E-002
 graz           2           7           6   3.7435754197393076E-011   5.9018103394676745E-010  0.16000000000000003        6.1747725108727263E-003   1.5575414265784312E-002
 graz           2           8           1   2.0111224946096425E-010   7.0782102072426625E-010  0.85999999999999999        6.1747117986282506E-003   1.8689602970181733E-002
 graz           2           8           2   2.1046492798262659E-010   7.0782102072426625E-010  0.90000000000000002        6.1746713237985987E-003   1.8689602970181733E-002
 graz           2           8           3   4.6699465221617595E-011   7.0782102072426625E-010  0.20000000000000001        6.1653612873687341E-003   1.8689602970181733E-002
 graz           2           8           4   4.6699465221617570E-011   7.0782102072426625E-010  0.20000000000000001        6.1653612873687307E-003   1.8689602970181733E-002
 graz           2           8           5   1.5761911091102817E-011   7.0782102072426625E-010  0.67500000000000004        6.1656904932891928E-004   1.8689602970181733E-002
 graz           2           8           6   1.8708300174633724E-010   7.0782102072426625E-010  0.80000000000000004        6.1747725108727263E-003   1.8689602970181733E-002
 prey           2          16           1   2.4135528953744121E-010
 prey           2          16           2   2.5257946130518109E-010
 prey           2          16           3   2.8031632042321658E-010
 prey           2          16           4   2.8031632042321638E-010
 prey           2          16           5   1.8915907038247924E-011
 prey           2          16           6   2.2451875594373031E-010
 pred           2          16           7   4.2296589773998610E-010
 pred           2          16           8   5.7559670962373641E-010
 mort           2           1   4.1390995138310473E-009   1.6534391534391535E-006  0.40541606921980505        6.1747117986282497E-003   0.0000000000000000        0.0000000000000000       0.40541606921980505        3.8127065796118915E-005
 mort           2           2   4.1390723823060151E-009   1.6534391534391535E-006  0.40541606921980505        6.1746713237985978E-003   0.0000000000000000        0.0000000000000000       0.40541606921980505        3.8126565956940730E-005
 mort           2           3   4.1328315781167142E-009   1.6534391534391535E-006  0.40541606921980505        6.1653612873687333E-003   0.0000000000000000        0.0000000000000000       0.40541606921980505        3.8011679803785041E-005
 mort           2           4   4.1328315781167125E-009   1.6534391534391535E-006  0.40541606921980505        6.1653612873687298E-003   0.0000000000000000        0.0000000000000000       0.40541606921980505        3.8011679803785000E-005
 mort           2           5   4.1330522549854834E-010   1.6534391534391535E-006  0.40541606921980505        6.1656904932891809E-004   0.0000000000000000        0.0000000000000000       0.40541606921980505        3.8015739259036582E-007
 mort           2           6   4.1391402111185952E-009   1.6534391534391535E-006  0.40541606921980505        6.1747725108727254E-003   0.0000000000000000        0.0000000000000000       0.40541606921980505        3.8127815561029459E-005
 mort           2           7   1.2660964061629957E-008   2.3148148148148148E-007  0.40541606921980505        9.7155173422540528E-002   3.5433093131728149E-009   9.2592592592592583E-007  0.40541606921980505        9.4391277227639254E-003
 mort           2           8   1.2661055591403912E-008   2.3148148148148148E-007  0.40541606921980505        9.7155722202474856E-002   3.5433493419736580E-009   9.2592592592592583E-007  0.40541606921980505        9.4392343566844662E-003
 graz           2           7           1   3.9045107708851033E-011   5.7328178169840981E-010  0.17200000000000001        6.0442253760484748E-003   1.5264079248180962E-002
 graz           2           7           2   4.0860893370537914E-011   5.7328178169840981E-010  0.18000000000000002        6.0441860498104613E-003   1.5264079248180962E-002
 graz           2           7           3   2.2699490118521092E-010   5.7328178169840981E-010   1.0000000000000000        6.0439181415446628E-003   1.5264079248180962E-002
 graz           2           7           4   2.2699490118521092E-010   5.7328178169840981E-010   1.0000000000000000        6.0439181415446628E-003   1.5264079248180962E-002
 graz           2           7           5   3.0645933422207968E-012   5.7328178169840981E-010  0.13500000000000001        6.0442379985581839E-004   1.5264079248180962E-002
 graz           2           7           6   3.6321384906378201E-011   5.7328178169840981E-010  0.16000000000000003        6.0442843654054937E-003   1.5264079248180962E-002
 graz           2           8           1   1.9512819525627508E-010   6.8691517684790479E-010  0.85999999999999999        6.0442253760484748E-003   1.8298782082076040E-002
 graz           2           8           2   2.0420259663273392E-010   6.8691517684790479E-010  0.90000000000000002        6.0441860498104613E-003   1.8298782082076040E-002
 graz           2           8           3   4.5376343413806005E-011   6.8691517684790479E-010  0.20000000000000001        6.0439181415446628E-003   1.8298782082076040E-002
 graz           2           8           4   4.5376343413806005E-011   6.8691517684790479E-010  0.20000000000000001        6.0439181415446628E-003   1.8298782082076040E-002
 graz           2           8           5   1.5315326378940526E-011   6.8691517684790479E-010  0.67500000000000004        6.0442379985581839E-004   1.8298782082076040E-002
 graz           2           8           6   1.8151637175234327E-010   6.8691517684790479E-010  0.80000000000000004        6.0442843654054937E-003   1.8298782082076040E-002
 prey           2          17           1   2.3417330296512610E-010
 prey           2          17           2   2.4506349000327183E-010
 prey           2          17           3   2.7237124459901693E-010
 prey           2          17           4   2.7237124459901693E-010
 prey           2          17           5   1.8379919721161323E-011
 prey           2          17           6   2.1783775665872147E-010
 pred           2          17           7   4.1090863362753273E-010
 pred           2          17           8   5.5860741016108509E-010
 mort           2           1   4.0233013219304638E-009   1.6534391534391535E-006  0.40258138770701424        6.0442253760484739E-003   0.0000000000000000        0.0000000000000000       0.40258138770701424        3.6532660396468313E-005
 mort           2           2   4.0232751446628172E-009   1.6534391534391535E-006  0.40258138770701424        6.0441860498104604E-003   0.0000000000000000        0.0000000000000000       0.40258138770701424        3.6532185004723376E-005
 mort           2           3   4.0230968131789824E-009   1.6534391534391535E-006  0.40258138770701424        6.0439181415446620E-003   0.0000000000000000        0.0000000000000000       0.40258138770701424        3.6528946501692683E-005
 mort           2           4   4.0230968131789824E-009   1.6534391534391535E-006  0.40258138770701424        6.0439181415446620E-003   0.0000000000000000        0.0000000000000000       0.40258138770701424        3.6528946501692683E-005
 mort           2           5   4.0233097240261498E-010   1.6534391534391535E-006  0.40258138770701424        6.0442379985581720E-004   0.0000000000000000        0.0000000000000000       0.40258138770701424        3.6532812983214496E-007
 mort           2           6   4.0233405878319334E-009   1.6534391534391535E-006  0.40258138770701424        6.0442843654054928E-003   0.0000000000000000        0.0000000000000000       0.40258138770701424        3.6533373489885284E-005
 mort           2           7   1.2541975097139419E-008   2.3148148148148148E-007  0.40258138770701424        9.6971164922710684E-002   3.5052190457156653E-009   9.2592592592592583E-007  0.40258138770701424        9.4034068264675554E-003
 mort           2           8   1.2542063337190953E-008   2.3148148148148148E-007  0.40258138770701424        9.6971698145543059E-002   3.5052575946589093E-009   9.2592592592592583E-007  0.40258138770701424        9.4035102412303190E-003
 graz           2           7           1   3.7937526110028909E-011   5.5701971226331066E-010  0.17200000000000001        5.9248473026653724E-003   1.4962603454638885E-002
 graz           2           7           2   3.9701806163960915E-011   5.5701971226331066E-010  0.18000000000000002        5.9248090924879666E-003   1.4962603454638885E-002
 graz           2           7           3   2.2055582838275928E-010   5.5701971226331066E-010   1.0000000000000000        5.9245468823563262E-003   1.4962603454638885E-002
 graz           2           7           4   2.2055582838275928E-010   5.5701971226331066E-010   1.0000000000000000        5.9245468823563262E-003   1.4962603454638885E-002
 graz           2           7           5   2.9776598687061645E-012   5.5701971226331066E-010  0.13500000000000001        5.9248576556235008E-004   1.4962603454638885E-002
 graz           2           7           6   3.5291063355096114E-011   5.5701971226331066E-010  0.16000000000000003        5.9249046179314828E-003   1.4962603454638885E-002
 graz           2           8           1   1.8959490496845153E-010   6.6743618441387056E-010  0.85999999999999999        5.9248473026653724E-003   1.7937367202573693E-002
 graz           2           8           2   1.9841199304617273E-010   6.6743618441387056E-010  0.90000000000000002        5.9248090924879666E-003   1.7937367202573693E-002
 graz           2           8           3   4.4089602681196524E-011   6.6743618441387056E-010  0.20000000000000001        5.9245468823563262E-003   1.7937367202573693E-002
 graz           2           8           4   4.4089602681196524E-011   6.6743618441387056E-010  0.20000000000000001        5.9245468823563262E-003   1.7937367202573693E-002
 graz           2           8           5   1.4881021450855138E-011   6.6743618441387056E-010  0.67500000000000004        5.9248576556235008E-004   1.7937367202573693E-002
 graz           2           8           6   1.7636905958599813E-010   6.6743618441387056E-010  0.80000000000000004        5.9249046179314828E-003   1.7937367202573693E-002
 prey           2          18           1   2.2753243107848044E-010
 prey           2          18           2   2.3811379921013365E-010
 prey           2          18           3   2.6464543106395581E-010
 prey           2          18           4   2.6464543106395581E-010
 prey           2          18           5   1.7858681319561301E-011
 prey           2          18           6   2.1166012294109424E-010
 pred           2          18           7   3.9925254761153173E-010
 pred           2          18           8   5.4276686806733582E-010
 mort           2           1   3.9162585682966311E-009   1.6534391534391535E-006  0.39976611397905176        5.9248473026653715E-003   0.0000000000000000        0.0000000000000000       0.39976611397905176        3.5103815559901126E-005
 mort           2           2   3.9162333117917765E-009   1.6534391534391535E-006  0.39976611397905176        5.9248090924879657E-003   0.0000000000000000        0.0000000000000000       0.39976611397905176        3.5103362782428073E-005
 mort           2           3   3.9160599937934763E-009   1.6534391534391535E-006  0.39976611397905176        5.9245468823563253E-003   0.0000000000000000        0.0000000000000000       0.39976611397905176        3.5100255761238054E-005
 mort           2           4   3.9160599937934763E-009   1.6534391534391535E-006  0.39976611397905176        5.9245468823563253E-003   0.0000000000000000        0.0000000000000000       0.39976611397905176        3.5100255761238054E-005
 mort           2           5   3.9162654114874957E-010   1.6534391534391535E-006  0.39976611397905176        5.9248576556234888E-004   0.0000000000000000        0.0000000000000000       0.39976611397905176        3.5103938239400265E-007
 mort           2           6   3.9162964530539139E-009   1.6534391534391535E-006  0.39976611397905176        5.9249046179314820E-003   0.0000000000000000        0.0000000000000000       0.39976611397905176        3.5104494731585798E-005
 mort           2           7   1.2424654686861162E-008   2.3148148148148148E-007  0.39976611397905176        9.6790879689835518E-002   3.4677764826436926E-009   9.2592592592592583E-007  0.39976611397905176        9.3684743911322133E-003
 mort           2           8   1.2424739756495614E-008   2.3148148148148148E-007  0.39976611397905176        9.6791397795281328E-002   3.4678136076020543E-009   9.2592592592592583E-007  0.39976611397905176        9.3685746871643907E-003
 graz           2           7           1   3.6857998308447847E-011   5.4116931825233329E-010  0.17200000000000001        5.8054307334476432E-003   1.4661024348988552E-002
 graz           2           7           2   3.8572077163393354E-011   5.4116931825233329E-010  0.18000000000000002        5.8053936110650578E-003   1.4661024348988552E-002
 graz           2           7           3   2.1427973847118697E-010   5.4116931825233329E-010   1.0000000000000000        5.8051340999271924E-003   1.4661024348988552E-002
 graz           2           7           4   2.1427973847118697E-010   5.4116931825233329E-010   1.0000000000000000        5.8051340999271924E-003   1.4661024348988552E-002
 graz           2           7           5   2.8929269200506950E-012   5.4116931825233329E-010  0.13500000000000001        5.8054360197050305E-004   1.4661024348988552E-002
 graz           2           7           6   3.4286838918067414E-011   5.4116931825233329E-010  0.16000000000000003        5.8054864170215183E-003   1.4661024348988552E-002
 graz           2           8           1   1.8420170939491424E-010   6.4845031987842766E-010  0.85999999999999999        5.8054307334476432E-003   1.7575834385641705E-002
 graz           2           8           2   1.9276799811402441E-010   6.4845031987842766E-010  0.90000000000000002        5.8053936110650578E-003   1.7575834385641705E-002
 graz           2           8           3   4.2835418011336913E-011   6.4845031987842766E-010  0.20000000000000001        5.8051340999271924E-003   1.7575834385641705E-002
 graz           2           8           4   4.2835418011336913E-011   6.4845031987842766E-010  0.20000000000000001        5.8051340999271924E-003   1.7575834385641705E-002
 graz           2           8           5   1.4457705471915599E-011   6.4845031987842766E-010  0.67500000000000004        5.8054360197050305E-004   1.7575834385641705E-002
 graz           2           8           6   1.7135207087489971E-010   6.4845031987842766E-010  0.80000000000000004        5.8054864170215183E-003   1.7575834385641705E-002
 prey           2          19           1   2.2105970770336209E-010
 prey           2          19           2   2.3134007527741776E-010
 prey           2          19           3   2.5711515648252388E-010
 prey           2          19           4   2.5711515648252388E-010
 prey           2          19           5   1.7350632391966293E-011
 prey           2          19           6   2.0563890979296711E-010
 pred           2          19           7   3.8789151807788293E-010
 pred           2          19           8   5.2732733950500966E-010
 mort           2           1   3.8117435842527383E-009   1.6534391534391535E-006  0.39710102929554614        5.8054307334476423E-003   0.0000000000000000        0.0000000000000000       0.39710102929554614        3.3703026000858427E-005
 mort           2           2   3.8117192103500688E-009   1.6534391534391535E-006  0.39710102929554614        5.8053936110650569E-003   0.0000000000000000        0.0000000000000000       0.39710102929554614        3.3702594979394979E-005
 mort           2           3   3.8115488199070136E-009   1.6534391534391535E-006  0.39710102929554614        5.8051340999271915E-003   0.0000000000000000        0.0000000000000000       0.39710102929554614        3.3699581918137487E-005
 mort           2           4   3.8115488199070136E-009   1.6534391534391535E-006  0.39710102929554614        5.8051340999271915E-003   0.0000000000000000        0.0000000000000000       0.39710102929554614        3.3699581918137487E-005
 mort           2           5   3.8117470551162394E-010   1.6534391534391535E-006  0.39710102929554614        5.8054360197050186E-004   0.0000000000000000        0.0000000000000000       0.39710102929554614        3.3703087378888449E-007
 mort           2           6   3.8117801451067410E-009   1.6534391534391535E-006  0.39710102929554614        5.8054864170215175E-003   0.0000000000000000        0.0000000000000000       0.39710102929554614        3.3703672538221334E-005
 mort           2           7   1.2312371565285101E-008   2.3148148148148148E-007  0.39710102929554614        9.6610223635785114E-002   3.4318115545806636E-009   9.2592592592592583E-007  0.39710102929554614        9.3335353109564121E-003
 mort           2           8   1.2312453597654698E-008   2.3148148148148148E-007  0.39710102929554614        9.6610727006236990E-002   3.4318473163658721E-009   9.2592592592592583E-007  0.39710102929554614        9.3336325726736495E-003
 graz           2           7           1   3.4477283469377256E-011   5.0620675752011169E-010  0.17200000000000001        5.5506378310072359E-003   1.4017360316363206E-002
 graz           2           7           2   3.6080652332581718E-011   5.0620675752011169E-010  0.18000000000000002        5.5506031070179278E-003   1.4017360316363206E-002
 graz           2           7           3   2.0043530741787703E-010   5.0620675752011169E-010   1.0000000000000000        5.5502497397731491E-003   1.4017360316363206E-002
 graz           2           7           4   2.0043530741787703E-010   5.0620675752011169E-010   1.0000000000000000        5.5502497397731491E-003   1.4017360316363206E-002
 graz           2           7           5   2.7060143272891357E-012   5.0620675752011169E-010  0.13500000000000001        5.5505321408773106E-004   1.4017360316363206E-002
 graz           2           7           6   3.2072192555109475E-011   5.0620675752011169E-010  0.16000000000000003        5.5506899169911993E-003   1.4017360316363206E-002
 graz           2           8           1   1.7230744403714030E-010   6.0657682530371178E-010  0.85999999999999999        5.5506378310072359E-003   1.6804404079993795E-002
 graz           2           8           2   1.8032061569298964E-010   6.0657682530371178E-010  0.90000000000000002        5.5506031070179278E-003   1.6804404079993795E-002
 graz           2           8           3   4.0068696881699745E-011   6.0657682530371178E-010  0.20000000000000001        5.5502497397731491E-003   1.6804404079993795E-002
 graz           2           8           4   4.0068696881699745E-011   6.0657682530371178E-010  0.20000000000000001        5.5502497397731491E-003   1.6804404079993795E-002
 graz           2           8           5   1.3523873267950789E-011   6.0657682530371178E-010  0.67500000000000004        5.5505321408773106E-004   1.6804404079993795E-002
 graz           2           8           6   1.6028749854223159E-010   6.0657682530371178E-010  0.80000000000000004        5.5506899169911993E-003   1.6804404079993795E-002
 prey           2          20           1   2.0678472750651756E-010
 prey           2          20           2   2.1640126802557136E-010
 prey           2          20           3   2.4050400429957675E-010
 prey           2          20           4   2.4050400429957675E-010
 prey           2          20           5   1.6229887595239926E-011
 prey           2          20           6   1.9235969109734107E-010
 pred           2          20           7   3.6283094894234631E-010
 pred           2          20           8   4.9327519961930946E-010
 mort           2           1   3.6225065108352118E-009   1.6534391534391535E-006  0.39470994225461298        5.5506378310072350E-003   0.0000000000000000        0.0000000000000000       0.39470994225461298        3.0809580331008701E-005
 mort           2           2   3.6224838489572111E-009   1.6534391534391535E-006  0.39470994225461298        5.5506031070179269E-003   0.0000000000000000        0.0000000000000000       0.39470994225461298        3.0809194851637066E-005
 mort           2           3   3.6222532312905760E-009   1.6534391534391535E-006  0.39470994225461298        5.5502497397731483E-003   0.0000000000000000        0.0000000000000000       0.39470994225461298        3.0805272173851898E-005
 mort           2           4   3.6222532312905760E-009   1.6534391534391535E-006  0.39470994225461298        5.5502497397731483E-003   0.0000000000000000        0.0000000000000000       0.39470994225461298        3.0805272173851898E-005
 mort           2           5   3.6224375344048476E-010   1.6534391534391535E-006  0.39470994225461298        5.5505321408772987E-004   0.0000000000000000        0.0000000000000000       0.39470994225461298        3.0808407046911928E-007
 mort           2           6   3.6225405036522133E-009   1.6534391534391535E-006  0.39470994225461298        5.5506899169911984E-003   0.0000000000000000        0.0000000000000000       0.39470994225461298        3.0810158554587758E-005
 mort           2           7   1.1991331713049598E-008   2.3148148148148148E-007  0.39470994225461298        9.5080711290253805E-002   3.3039932725626516E-009   9.2592592592592583E-007  0.39470994225461298        9.0403416594605976E-003
 mort           2           8   1.1991407461803766E-008   2.3148148148148148E-007  0.39470994225461298        9.5081182168625308E-002   3.3040259980819069E-009   9.2592592592592583E-007  0.39470994225461298        9.0404312025833111E-003
 graz           2           7           1   2.4422961004107838E-011   3.5852800205285635E-010  0.17200000000000001        4.4686476555270546E-003   1.1283123052676113E-002
 graz           2           7           2   2.5558772014051956E-011   3.5852800205285635E-010  0.18000000000000002        4.4686230621166926E-003   1.1283123052676113E-002
 graz           2           7           3   1.4195528294331235E-010   3.5852800205285635E-010   1.0000000000000000        4.4674304831306194E-003   1.1283123052676113E-002
 graz           2           7           4   1.4195528294331235E-010   3.5852800205285635E-010   1.0000000000000000        4.4674304831306194E-003   1.1283123052676113E-002
 graz           2           7           5   1.9164821029911359E-012   3.5852800205285635E-010  0.13500000000000001        4.4676304578074240E-004   1.1283123052676113E-002
 graz           2           7           6   2.2719221045080735E-011   3.5852800205285635E-010  0.16000000000000003        4.4686845456425976E-003   1.1283123052676113E-002
 graz           2           8           1   1.2206971788056097E-010   4.2971057797869448E-010  0.85999999999999999        4.4686476555270546E-003   1.3528282625326619E-002
 graz           2           8           2   1.2774667611368403E-010   4.2971057797869448E-010  0.90000000000000002        4.4686230621166926E-003   1.3528282625326619E-002
 graz           2           8           3   2.8380574063285416E-011   4.2971057797869448E-010  0.20000000000000001        4.4674304831306194E-003   1.3528282625326619E-002
 graz           2           8           4   2.8380574063285416E-011   4.2971057797869448E-010  0.20000000000000001        4.4674304831306194E-003   1.3528282625326619E-002
 graz           2           8           5   9.5788725042767623E-012   4.2971057797869448E-010  0.67500000000000004        4.4676304578074240E-004   1.3528282625326619E-002
 graz           2           8           6   1.1355416335360183E-010   4.2971057797869448E-010  0.80000000000000004        4.4686845456425976E-003   1.3528282625326619E-002
 prey           2          21           1   1.4649267888466880E-010
 prey           2          21           2   1.5330544812773599E-010
 prey           2          21           3   1.7033585700659776E-010
 prey           2          21           4   1.7033585700659776E-010
 prey           2          21           5   1.1495354607267899E-011
 prey           2          21           6   1.3627338439868257E-010
 pred           2          21           7   2.5697542717579243E-010
 pred           2          21           8   3.4944457719561259E-010
 mort           2           1   2.8929858850136896E-009   1.6534391534391535E-006  0.39154527233584591        4.4686476555270537E-003   0.0000000000000000        0.0000000000000000       0.39154527233584591        1.9968811869247434E-005
 mort           2           2   2.8929699633312197E-009   1.6534391534391535E-006  0.39154527233584591        4.4686230621166917E-003   0.0000000000000000        0.0000000000000000       0.39154527233584591        1.9968592071281158E-005
 mort           2           3   2.8921978921277078E-009   1.6534391534391535E-006  0.39154527233584591        4.4674304831306185E-003   0.0000000000000000        0.0000000000000000       0.39154527233584591        1.9957935121604671E-005
 mort           2           4   2.8921978921277078E-009   1.6534391534391535E-006  0.39154527233584591        4.4674304831306185E-003   0.0000000000000000        0.0000000000000000       0.39154527233584591        1.9957935121604671E-005
 mort           2           5   2.8923273549902832E-010   1.6534391534391535E-006  0.39154527233584591        4.4676304578074121E-004   0.0000000000000000        0.0000000000000000       0.39154527233584591        1.9959721907528467E-007
 mort           2           6   2.8930097675373949E-009   1.6534391534391535E-006  0.39154527233584591        4.4686845456425968E-003   0.0000000000000000        0.0000000000000000       0.39154527233584591        1.9969141568464980E-005
 mort           2           7   1.0216841244688420E-008   2.3148148148148148E-007  0.39154527233584591        8.4299141963547874E-002   2.5763480739024255E-009   9.2592592592592583E-007  0.39154527233584591        7.1063453357903981E-003
 mort           2           8   1.0216891870234195E-008   2.3148148148148148E-007  0.39154527233584591        8.4299475554067263E-002   2.5763684643114515E-009   9.2592592592592583E-007  0.39154527233584591        7.1064015786907837E-003
 graz           2           7           1   1.6008461208245648E-011   2.3498880848010702E-010  0.17200000000000001        3.3855766270742748E-003   8.5478852995048600E-003
 graz           2           7           2   1.6752961035032379E-011   2.3498880848010702E-010  0.18000000000000002        3.3855605077241081E-003   8.5478852995048600E-003
 graz           2           7           3   9.3039801056969600E-011   2.3498880848010702E-010   1.0000000000000000        3.3843890390680147E-003   8.5478852995048600E-003
 graz           2           7           4   9.3039801056969600E-011   2.3498880848010702E-010   1.0000000000000000        3.3843890390680147E-003   8.5478852995048600E-003
 graz           2           7           5   1.2560859488733419E-012   2.3498880848010702E-010  0.13500000000000001        3.3845200848734862E-004   8.5478852995048600E-003
 graz           2           7           6   1.4891698174016471E-011   2.3498880848010702E-010  0.16000000000000003        3.3856008060995243E-003   8.5478852995048600E-003
 graz           2           8           1   8.0019904033609662E-011   2.8168309353861498E-010  0.85999999999999999        3.3855766270742748E-003   1.0249291722471358E-002
 graz           2           8           2   8.3741361325321595E-011   2.8168309353861498E-010  0.90000000000000002        3.3855605077241081E-003   1.0249291722471358E-002
 graz           2           8           3   1.8602752269656125E-011   2.8168309353861498E-010  0.20000000000000001        3.3843890390680147E-003   1.0249291722471358E-002
 graz           2           8           4   1.8602752269656125E-011   2.8168309353861498E-010  0.20000000000000001        3.3843890390680147E-003   1.0249291722471358E-002
 graz           2           8           5   6.2786719959716457E-012   2.8168309353861498E-010  0.67500000000000004        3.3845200848734862E-004   1.0249291722471358E-002
 graz           2           8           6   7.4437651644399868E-011   2.8168309353861498E-010  0.80000000000000004        3.3856008060995243E-003   1.0249291722471358E-002
 prey           2          22           1   9.6028365241855316E-011
 prey           2          22           2   1.0049432236035398E-010
 prey           2          22           3   1.1164255332662573E-010
 prey           2          22           4   1.1164255332662573E-010
 prey           2          22           5   7.5347579448449883E-012
 prey           2          22           6   8.9329349818416345E-011
 pred           2          22           7   1.6842736423761850E-010
 pred           2          22           8   2.2906702528482325E-010
 mort           2           1   2.1734195389908497E-009   1.6534391534391535E-006  0.38826004606417919        3.3855766270742735E-003   0.0000000000000000        0.0000000000000000       0.38826004606417919        1.1462129097791615E-005
 mort           2           2   2.1734091909425059E-009   1.6534391534391535E-006  0.38826004606417919        3.3855605077241068E-003   0.0000000000000000        0.0000000000000000       0.38826004606417919        1.1462019951461112E-005
 mort           2           3   2.1726571498142365E-009   1.6534391534391535E-006  0.38826004606417919        3.3843890390680134E-003   0.0000000000000000        0.0000000000000000       0.38826004606417919        1.1454089167763711E-005
 mort           2           4   2.1726571498142365E-009   1.6534391534391535E-006  0.38826004606417919        3.3843890390680134E-003   0.0000000000000000        0.0000000000000000       0.38826004606417919        1.1454089167763711E-005
 mort           2           5   2.1727412765511159E-010   1.6534391534391535E-006  0.38826004606417919        3.3845200848734743E-004   0.0000000000000000        0.0000000000000000       0.38826004606417919        1.1454976204911949E-007
 mort           2           6   2.1734350610633649E-009   1.6534391534391535E-006  0.38826004606417919        3.3856008060995230E-003   0.0000000000000000        0.0000000000000000       0.38826004606417919        1.1462292818261740E-005
 mort           2           7   8.5501527746593215E-009   2.3148148148148148E-007  0.38826004606417919        7.3515626919958721E-002   1.9429350213305755E-009   9.2592592592592583E-007  0.38826004606417919        5.4045474014345592E-003
 mort           2           8   8.5501839910215760E-009   2.3148148148148148E-007  0.38826004606417919        7.3515845624807258E-002   1.9429465815922353E-009   9.2592592592592583E-007  0.38826004606417919        5.4045795579304922E-003
 graz           2           7           1   9.2129777826547138E-012   1.3522097358678046E-010  0.17200000000000001        2.3024783798004777E-003   5.8125679438445635E-003
 graz           2           7           2   9.6414495361163017E-012   1.3522097358678046E-010  0.18000000000000002        2.3024691041840396E-003   5.8125679438445635E-003
 graz           2           7           3   5.3536756350102764E-011   1.3522097358678046E-010   1.0000000000000000        2.3013148443152944E-003   5.8125679438445635E-003
 graz           2           7           4   5.3536756350102764E-011   1.3522097358678046E-010   1.0000000000000000        2.3013148443152944E-003   5.8125679438445635E-003
 graz           2           7           5   7.2276988885499101E-013   1.3522097358678046E-010  0.13500000000000001        2.3013902384550803E-004   5.8125679438445635E-003
 graz           2           7           6   8.5702636789489154E-012   1.3522097358678046E-010  0.16000000000000003        2.3024922932251344E-003   5.8125679438445635E-003
 graz           2           8           1   4.6056119607509859E-011   1.6212113833168177E-010  0.85999999999999999        2.3024783798004777E-003   6.9702172137959895E-003
 graz           2           8           2   4.8198070537101713E-011   1.6212113833168177E-010  0.90000000000000002        2.3024691041840396E-003   6.9702172137959895E-003
 graz           2           8           3   1.0705312927165042E-011   1.6212113833168177E-010  0.20000000000000001        2.3013148443152944E-003   6.9702172137959895E-003
 graz           2           8           4   1.0705312927165042E-011   1.6212113833168177E-010  0.20000000000000001        2.3013148443152944E-003   6.9702172137959895E-003
 graz           2           8           5   3.6131614810233660E-012   1.6212113833168177E-010  0.67500000000000004        2.3013902384550803E-004   6.9702172137959895E-003
 graz           2           8           6   4.2843160851716753E-011   1.6212113833168177E-010  0.80000000000000004        2.3024922932251344E-003   6.9702172137959895E-003
 prey           2          23           1   5.5269097390164573E-011
 prey           2          23           2   5.7839520073218013E-011
 prey           2          23           3   6.4242069277267802E-011
 prey           2          23           4   6.4242069277267802E-011
 prey           2          23           5   4.3359313698783570E-012
 prey           2          23           6   5.1413424530665669E-011
 pred           2          23           7   9.6917794514794400E-011
 pred           2          23           8   1.3183797325077843E-010
 mort           2           1   1.4651673455166650E-009   1.6534391534391535E-006  0.38486059992679178        2.3024783798004764E-003   0.0000000000000000        0.0000000000000000       0.38486059992679178        5.3014066894486265E-006
 mort           2           2   1.4651614430376518E-009   1.6534391534391535E-006  0.38486059992679178        2.3024691041840383E-003   0.0000000000000000        0.0000000000000000       0.38486059992679178        5.3013639757220474E-006
 mort           2           3   1.4644269371752896E-009   1.6534391534391535E-006  0.38486059992679178        2.3013148443152931E-003   0.0000000000000000        0.0000000000000000       0.38486059992679178        5.2960500126659216E-006
 mort           2           4   1.4644269371752896E-009   1.6534391534391535E-006  0.38486059992679178        2.3013148443152931E-003   0.0000000000000000        0.0000000000000000       0.38486059992679178        5.2960500126659216E-006
 mort           2           5   1.4644749137524472E-010   1.6534391534391535E-006  0.38486059992679178        2.3013902384550684E-004   0.0000000000000000        0.0000000000000000       0.38486059992679178        5.2963970296562766E-008
 mort           2           6   1.4651761992351842E-009   1.6534391534391535E-006  0.38486059992679178        2.3024922932251331E-003   0.0000000000000000        0.0000000000000000       0.38486059992679178        5.3014707603611323E-006
 mort           2           7   6.9910266660328123E-009   2.3148148148148148E-007  0.38486059992679178        6.2731976609653475E-002   1.4023539455270928E-009   9.2592592592592583E-007  0.38486059992679178        3.9353008893541104E-003
 mort           2           8   6.9910435089701122E-009   2.3148148148148148E-007  0.38486059992679178        6.2732102493423481E-002   1.4023595737182708E-009   9.2592592592592583E-007  0.38486059992679178        3.9353166832453886E-003
 graz           2           7           1   2.5575789553585769E-012   3.7532944113992511E-011  0.17200000000000001        8.8431617454847160E-004   2.2321305827483744E-003
 graz           2           7           2   2.6765283235885976E-012   3.7532944113992511E-011  0.18000000000000002        8.8431359994471681E-004   2.2321305827483744E-003
 graz           2           7           3   1.4859537363556508E-011   3.7532944113992511E-011   1.0000000000000000        8.8371505560421088E-004   2.2321305827483744E-003
 graz           2           7           4   1.4859537363556508E-011   3.7532944113992511E-011   1.0000000000000000        8.8371505560421088E-004   2.2321305827483744E-003
 graz           2           7           5   2.0060850366616202E-013   3.7532944113992511E-011  0.13500000000000001        8.8373597740072339E-005   2.2321305827483744E-003
 graz           2           7           6   2.3791536042661562E-012   3.7532944113992511E-011  0.16000000000000003        8.8432003645410348E-004   2.2321305827483744E-003
 graz           2           8           1   1.2786968267215761E-011   4.5009900582608439E-011  0.85999999999999999        8.8431617454847160E-004   2.6769883799414467E-003
 graz           2           8           2   1.3381672017720074E-011   4.5009900582608439E-011  0.90000000000000002        8.8431359994471681E-004   2.6769883799414467E-003
 graz           2           8           3   2.9716921518329368E-012   4.5009900582608439E-011  0.20000000000000001        8.8371505560421088E-004   2.6769883799414467E-003
 graz           2           8           4   2.9716921518329368E-012   4.5009900582608439E-011  0.20000000000000001        8.8371505560421088E-004   2.6769883799414467E-003
 graz           2           8           5   1.0029698458138938E-012   4.5009900582608439E-011  0.67500000000000004        8.8373597740072339E-005   2.6769883799414467E-003
 graz           2           8           6   1.1894906148192839E-011   4.5009900582608439E-011  0.80000000000000004        8.8432003645410348E-004   2.6769883799414467E-003
 prey           2          24           1   1.5344547222574337E-011
 prey           2          24           2   1.6058200341308672E-011
 prey           2          24           3   1.7831229515389444E-011
 prey           2          24           4   1.7831229515389444E-011
 prey           2          24           5   1.2035783494800559E-012
 prey           2          24           6   1.4274059752458995E-011
 pred           2          24           7   2.6900807536442211E-011
 pred           2          24           8   3.6602258896453344E-011
 mort           2           1   5.5778681091790097E-010   1.6534391534391535E-006  0.38148059817564262        8.8431617454847041E-004   0.0000000000000000        0.0000000000000000       0.38148059817564262        7.8201509656804074E-007
 mort           2           2   5.5778518697381957E-010   1.6534391534391535E-006  0.38148059817564262        8.8431359994471561E-004   0.0000000000000000        0.0000000000000000       0.38148059817564262        7.8201054304718250E-007
 mort           2           3   5.5740765216388093E-010   1.6534391534391535E-006  0.38148059817564262        8.8371505560420969E-004   0.0000000000000000        0.0000000000000000       0.38148059817564262        7.8095229950155139E-007
 mort           2           4   5.5740765216388093E-010   1.6534391534391535E-006  0.38148059817564262        8.8371505560420969E-004   0.0000000000000000        0.0000000000000000       0.38148059817564262        7.8095229950155139E-007
 mort           2           5   5.5742084869074002E-011   1.6534391534391535E-006  0.38148059817564262        8.8373597740071133E-005   0.0000000000000000        0.0000000000000000       0.38148059817564262        7.8098927775239053E-009
 mort           2           6   5.5778924683402293E-010   1.6534391534391535E-006  0.38148059817564262        8.8432003645410229E-004   0.0000000000000000        0.0000000000000000       0.38148059817564262        7.8202192687418481E-007
 mort           2           7   4.7753443614509784E-009   2.3148148148148148E-007  0.38148059817564262        4.5717180531975869E-002   7.3825700583940540E-010   9.2592592592592583E-007  0.38148059817564262        2.0900605957932736E-003
 mort           2           8   4.7753485769198717E-009   2.3148148148148148E-007  0.38148059817564262        4.5717215485415526E-002   7.3825813472055125E-010   9.2592592592592583E-007  0.38148059817564262        2.0900637917399172E-003
 graz           2           7           1   9.8454306568923414E-013   1.4453410191727234E-011  0.17200000000000001        5.6595519034282075E-004   1.4290456576370192E-003
 graz           2           7           2   1.0303339614617799E-012   1.4453410191727234E-011  0.18000000000000002        5.6595419889428410E-004   1.4290456576370192E-003
 graz           2           7           3   5.7227095323428468E-012   1.4453410191727234E-011   1.0000000000000000        5.6581893813498836E-004   1.4290456576370192E-003
 graz           2           7           4   5.7227095323428468E-012   1.4453410191727234E-011   1.0000000000000000        5.6581893813498836E-004   1.4290456576370192E-003
 graz           2           7           5   7.7257678686306784E-014   1.4453410191727234E-011  0.13500000000000001        5.6582699441524991E-005   1.4290456576370192E-003
 graz           2           7           6   9.1585642120421847E-013   1.4453410191727234E-011  0.16000000000000003        5.6595667751562590E-004   1.4290456576370192E-003
 graz           2           8           1   4.9224913453986474E-012   1.7328250978609773E-011  0.85999999999999999        5.6595519034282075E-004   1.7133664820892069E-003
 graz           2           8           2   5.1514354068558380E-012   1.7328250978609773E-011  0.90000000000000002        5.6595419889428410E-004   1.7133664820892069E-003
 graz           2           8           3   1.1444898299280577E-012   1.7328250978609773E-011  0.20000000000000001        5.6581893813498836E-004   1.7133664820892069E-003
 graz           2           8           4   1.1444898299280577E-012   1.7328250978609773E-011  0.20000000000000001        5.6581893813498836E-004   1.7133664820892069E-003
 graz           2           8           5   3.8627081734886181E-013   1.7328250978609773E-011  0.67500000000000004        5.6582699441524991E-005   1.7133664820892069E-003
 graz           2           8           6   4.5790737491503114E-012   1.7328250978609773E-011  0.80000000000000004        5.6595667751562590E-004   1.7133664820892069E-003
 prey           2          25           1   5.9070344110878814E-012
 prey           2          25           2   6.1817693683176177E-012
 prey           2          25           3   6.8671993622709046E-012
 prey           2          25           4   6.8671993622709046E-012
 prey           2          25           5   4.6352849603516862E-013
 prey           2          25           6   5.4949301703545298E-012
 pred           2          25           7   1.0359531702565174E-011
 pred           2          25           8   1.4091498748873429E-011
 mort           2           1   3.4998615187148922E-010   1.6534391534391535E-006  0.37400774524862912        5.6595519034281956E-004   0.0000000000000000        0.0000000000000000       0.37400774524862912        3.2030527747597710E-007
 mort           2           2   3.4998553876065631E-010   1.6534391534391535E-006  0.37400774524862912        5.6595419889428290E-004   0.0000000000000000        0.0000000000000000       0.37400774524862912        3.2030415524606954E-007
 mort           2           3   3.4990189363564837E-010   1.6534391534391535E-006  0.37400774524862912        5.6581893813498717E-004   0.0000000000000000        0.0000000000000000       0.37400774524862912        3.2015107075220441E-007
 mort           2           4   3.4990189363564837E-010   1.6534391534391535E-006  0.37400774524862912        5.6581893813498717E-004   0.0000000000000000        0.0000000000000000       0.37400774524862912        3.2015107075220441E-007
 mort           2           5   3.4990687563169941E-011   1.6534391534391535E-006  0.37400774524862912        5.6582699441523791E-005   0.0000000000000000        0.0000000000000000       0.37400774524862912        3.2016018760898166E-009
 mort           2           6   3.4998707153773861E-010   1.6534391534391535E-006  0.37400774524862912        5.6595667751562471E-004   0.0000000000000000        0.0000000000000000       0.37400774524862912        3.2030696082452482E-007
 mort           2           7   2.7003287091389494E-009   2.3148148148148148E-007  0.37400774524862912        2.8044369957266630E-002   2.7236306686216992E-010   9.2592592592592583E-007  0.37400774524862912        7.8648668630003913E-004
 mort           2           8   2.7003301360228272E-009   2.3148148148148148E-007  0.37400774524862912        2.8044383418486502E-002   2.7236332832926745E-010   9.2592592592592583E-007  0.37400774524862912        7.8648744132308061E-004
 graz           2           7           1   4.2535789397181597E-014   6.2425618740940457E-013  0.17200000000000001        1.4485148594412206E-004   3.6564510201081738E-004
 graz           2           7           2   4.4514185048150279E-014   6.2425618740940457E-013  0.18000000000000002        1.4485144312665550E-004   3.6564510201081738E-004
 graz           2           7           3   2.4715073812663908E-013   6.2425618740940457E-013   1.0000000000000000        1.4476341392688025E-004   3.6564510201081738E-004
 graz           2           7           4   2.4715073812663908E-013   6.2425618740940457E-013   1.0000000000000000        1.4476341392688025E-004   3.6564510201081738E-004
 graz           2           7           5   3.3365429830996978E-015   6.2425618740940457E-013  0.13500000000000001        1.4476376182358535E-005   3.6564510201081738E-004
 graz           2           7           6   3.9568193727694820E-014   6.2425618740940457E-013  0.16000000000000003        1.4485155017032188E-004   3.6564510201081738E-004
 graz           2           8           1   2.1267755010364952E-013   7.4862893397974399E-013  0.85999999999999999        1.4485148594412206E-004   4.3849673635603655E-004
 graz           2           8           2   2.2256946338765724E-013   7.4862893397974399E-013  0.90000000000000002        1.4485144312665550E-004   4.3849673635603655E-004
 graz           2           8           3   4.9429822966506497E-014   7.4862893397974399E-013  0.20000000000000001        1.4476341392688025E-004   4.3849673635603655E-004
 graz           2           8           4   4.9429822966506497E-014   7.4862893397974399E-013  0.20000000000000001        1.4476341392688025E-004   4.3849673635603655E-004
 graz           2           8           5   1.6682605342882964E-014   7.4862893397974399E-013  0.67500000000000004        1.4476376182358535E-005   4.3849673635603655E-004
 graz           2           8           6   1.9783966921254126E-013   7.4862893397974399E-013  0.80000000000000004        1.4485155017032188E-004   4.3849673635603655E-004
 prey           2          26           1   2.5521333950083109E-013
 prey           2          26           2   2.6708364843580752E-013
 prey           2          26           3   2.9658056109314557E-013
 prey           2          26           4   2.9658056109314557E-013
 prey           2          26           5   2.0019148325982663E-014
 prey           2          26           6   2.3740786294023606E-013
 pred           2          26           7   4.4742306546507311E-013
 pred           2          26           8   6.0878911177709652E-013
 mort           2           1   8.7816039980679855E-011   1.6534391534391535E-006  0.36665927611404536        1.4485148594412087E-004   0.0000000000000000        0.0000000000000000       0.36665927611404536        2.0981952980219846E-008
 mort           2           2   8.7816014022641988E-011   1.6534391534391535E-006  0.36665927611404536        1.4485144312665431E-004   0.0000000000000000        0.0000000000000000       0.36665927611404536        2.0981940575874367E-008
 mort           2           3   8.7762646425640536E-011   1.6534391534391535E-006  0.36665927611404536        1.4476341392687906E-004   0.0000000000000000        0.0000000000000000       0.36665927611404536        2.0956446011764919E-008
 mort           2           4   8.7762646425640536E-011   1.6534391534391535E-006  0.36665927611404536        1.4476341392687906E-004   0.0000000000000000        0.0000000000000000       0.36665927611404536        2.0956446011764919E-008
 mort           2           5   8.7762857337595049E-012   1.6534391534391535E-006  0.36665927611404536        1.4476376182357335E-005   0.0000000000000000        0.0000000000000000       0.36665927611404536        2.0956546737312275E-010
 mort           2           6   8.7816078917736635E-011   1.6534391534391535E-006  0.36665927611404536        1.4485155017032069E-004   0.0000000000000000        0.0000000000000000       0.36665927611404536        2.0981971586744933E-008
 mort           2           7   4.1769796546941429E-010   2.3148148148148148E-007  0.36665927611404536        4.8280985369477053E-003   7.9139111720700261E-012   9.2592592592592583E-007  0.36665927611404536        2.3310535482476573E-005
 mort           2           8   4.1769801672286611E-010   2.3148148148148148E-007  0.36665927611404536        4.8280991183617325E-003   7.9139130781037185E-012   9.2592592592592583E-007  0.36665927611404536        2.3310541096725337E-005
 graz           2           7           1   5.1257824202203578E-015   7.5245444051714863E-014  0.17200000000000001        4.7487091345112560E-005   1.1990134596298400E-004
 graz           2           7           2   5.3641903219160083E-015   7.5245444051714863E-014  0.18000000000000002        4.7487086184343890E-005   1.1990134596298400E-004
 graz           2           7           3   2.9792550525863906E-014   7.5245444051714863E-014   1.0000000000000000        4.7473530826214572E-005   1.1990134596298400E-004
 graz           2           7           4   2.9792550525863906E-014   7.5245444051714863E-014   1.0000000000000000        4.7473530826214572E-005   1.1990134596298400E-004
 graz           2           7           5   4.0219978733475538E-016   7.5245444051714863E-014  0.13500000000000001        4.7473572756377842E-006   1.1990134596298400E-004
 graz           2           7           6   4.7681704705159224E-015   7.5245444051714863E-014  0.16000000000000003        4.7487099086265568E-005   1.1990134596298400E-004
 graz           2           8           1   2.5629236918443286E-014   9.0219878630243699E-014  0.85999999999999999        4.7487091345112560E-005   1.4376083388326010E-004
 graz           2           8           2   2.6821291534667919E-014   9.0219878630243699E-014  0.90000000000000002        4.7487086184343890E-005   1.4376083388326010E-004
 graz           2           8           3   5.9585856225183497E-015   9.0219878630243699E-014  0.20000000000000001        4.7473530826214572E-005   1.4376083388326010E-004
 graz           2           8           4   5.9585856225183497E-015   9.0219878630243699E-014  0.20000000000000001        4.7473530826214572E-005   1.4376083388326010E-004
 graz           2           8           5   2.0110244238004168E-015   9.0219878630243699E-014  0.67500000000000004        4.7473572756377842E-006   1.4376083388326010E-004
 graz           2           8           6   2.3841154508295377E-014   9.0219878630243699E-014  0.80000000000000004        4.7487099086265568E-005   1.4376083388326010E-004
 prey           2          27           1   3.0755019338663641E-014
 prey           2          27           2   3.2185481856583925E-014
 prey           2          27           3   3.5751136148382259E-014
 prey           2          27           4   3.5751136148382259E-014
 prey           2          27           5   2.4132242111351722E-015
 prey           2          27           6   2.8609324978811302E-014
 pred           2          27           7   5.3932218041377069E-014
 pred           2          27           8   7.3367620028698640E-014
 mort           2           1   2.8027583227170615E-011   1.6534391534391535E-006  0.35696189965818670        4.7487091345111360E-005   0.0000000000000000        0.0000000000000000       0.35696189965818670        2.2550238444189503E-009
 mort           2           2   2.8027580181208665E-011   1.6534391534391535E-006  0.35696189965818670        4.7487086184342690E-005   0.0000000000000000        0.0000000000000000       0.35696189965818670        2.2550233542791904E-009
 mort           2           3   2.8019579608476540E-011   1.6534391534391535E-006  0.35696189965818670        4.7473530826213373E-005   0.0000000000000000        0.0000000000000000       0.35696189965818670        2.2537361291074312E-009
 mort           2           4   2.8019579608476540E-011   1.6534391534391535E-006  0.35696189965818670        4.7473530826213373E-005   0.0000000000000000        0.0000000000000000       0.35696189965818670        2.2537361291074312E-009
 mort           2           5   2.8019604356272301E-012   1.6534391534391535E-006  0.35696189965818670        4.7473572756365840E-006   0.0000000000000000        0.0000000000000000       0.35696189965818670        2.2537401102539609E-011
 mort           2           6   2.8027587796113546E-011   1.6534391534391535E-006  0.35696189965818670        4.7487099086264368E-005   0.0000000000000000        0.0000000000000000       0.35696189965818670        2.2550245796286903E-009
 mort           2           7   1.5173119728100643E-010   2.3148148148148148E-007  0.35696189965818670        1.8229779711088866E-003   1.0984010768270136E-012   9.2592592592592583E-007  0.35696189965818670        3.3232486831482726E-006
 mort           2           8   1.5173120315630106E-010   2.3148148148148148E-007  0.35696189965818670        1.8229780411904201E-003   1.0984011612796339E-012   9.2592592592592583E-007  0.35696189965818670        3.3232489386624607E-006
 graz           2           7           1   3.2325037194257867E-016   4.7441617823024908E-015  0.17200000000000001        9.2797634489272885E-006   2.3425334981816998E-005
 graz           2           7           2   3.3828526110220443E-016   4.7441617823024908E-015  0.18000000000000002        9.2797631235601918E-006   2.3425334981816998E-005
 graz           2           7           3   1.8782856249341285E-015   4.7441617823024908E-015   1.0000000000000000        9.2744455131669459E-006   2.3425334981816998E-005
 graz           2           7           4   1.8782856249341285E-015   4.7441617823024908E-015   1.0000000000000000        9.2744455131669459E-006   2.3425334981816998E-005
 graz           2           7           5   2.5356863163136986E-017   4.7441617823024908E-015  0.13500000000000001        9.2744481563189256E-007   2.3425334981816998E-005
 graz           2           7           6   3.0069803622631356E-016   4.7441617823024908E-015  0.16000000000000003        9.2797639369779301E-006   2.3425334981816998E-005
 graz           2           8           1   1.6163882246661380E-015   5.6897469218733825E-015  0.85999999999999999        9.2797634489272885E-006   2.8091997982682289E-005
 graz           2           8           2   1.6915690130152281E-015   5.6897469218733825E-015  0.90000000000000002        9.2797631235601918E-006   2.8091997982682289E-005
 graz           2           8           3   3.7568881959306981E-016   5.6897469218733825E-015  0.20000000000000001        9.2744455131669459E-006   2.8091997982682289E-005
 graz           2           8           4   3.7568881959306981E-016   5.6897469218733825E-015  0.20000000000000001        9.2744455131669459E-006   2.8091997982682289E-005
 graz           2           8           5   1.2679501274834085E-016   5.6897469218733825E-015  0.67500000000000004        9.2744481563189256E-007   2.8091997982682289E-005
 graz           2           8           6   1.5036170322575366E-015   5.6897469218733825E-015  0.80000000000000004        9.2797639369779301E-006   2.8091997982682289E-005
 prey           2          28           1   1.9396385966087165E-015
 prey           2          28           2   2.0298542741174323E-015
 prey           2          28           3   2.2539744445271984E-015
 prey           2          28           4   2.2539744445271984E-015
 prey           2          28           5   1.5215187591147785E-016
 prey           2          28           6   1.8043150684838502E-015
 pred           2          28           7   3.4002932128682995E-015
 pred           2          28           8   4.6269353014173206E-015
 mort           2           1   5.3599366966718440E-012   1.6534391534391535E-006  0.34932891684025402        9.2797634489260891E-006   0.0000000000000000        0.0000000000000000       0.34932891684025402        8.6114009668024621E-011
 mort           2           2   5.3599365087417250E-012   1.6534391534391535E-006  0.34932891684025402        9.2797631235589924E-006   0.0000000000000000        0.0000000000000000       0.34932891684025402        8.6114003629365349E-011
 mort           2           3   5.3568650883071174E-012   1.6534391534391535E-006  0.34932891684025402        9.2744455131657465E-006   0.0000000000000000        0.0000000000000000       0.34932891684025402        8.6015339576680242E-011
 mort           2           4   5.3568650883071174E-012   1.6534391534391535E-006  0.34932891684025402        9.2744455131657465E-006   0.0000000000000000        0.0000000000000000       0.34932891684025402        8.6015339576680242E-011
 mort           2           5   5.3568666149698899E-013   1.6534391534391535E-006  0.34932891684025402        9.2744481563069252E-007   0.0000000000000000        0.0000000000000000       0.34932891684025402        8.6015388604024922E-013
 mort           2           6   5.3599369785670182E-012   1.6534391534391535E-006  0.34932891684025402        9.2797639369767308E-006   0.0000000000000000        0.0000000000000000       0.34932891684025402        8.6114018726013871E-011
 mort           2           7   4.8747530575353736E-011   2.3148148148148148E-007  0.34932891684025402        6.0139298488838414E-004   1.1698427757908581E-013   9.2592592592592583E-007  0.34932891684025402        3.6167352227296023E-007
 mort           2           8   4.8747530934432245E-011   2.3148148148148148E-007  0.34932891684025402        6.0139298930769118E-004   1.1698427929839235E-013   9.2592592592592583E-007  0.34932891684025402        3.6167352758844074E-007
 graz           2           7           1   1.3852784542508042E-017   2.0325055269569445E-016  0.17200000000000001        9.3050449688138906E-007   2.3482351193595924E-006
 graz           2           7           2   1.4497099885335009E-017   2.0325055269569445E-016  0.18000000000000002        9.3050448293452889E-007   2.3482351193595924E-006
 graz           2           7           3   8.0464046011233427E-017   2.0325055269569445E-016   1.0000000000000000        9.2963338196790574E-007   2.3482351193595924E-006
 graz           2           7           4   8.0464046011233427E-017   2.0325055269569445E-016   1.0000000000000000        9.2963338196790574E-007   2.3482351193595924E-006
 graz           2           7           5   1.0862647533318659E-018   2.0325055269569445E-016  0.13500000000000001        9.2963349508872135E-008   2.3482351193595924E-006
 graz           2           7           6   1.2886311492052638E-017   2.0325055269569445E-016  0.16000000000000003        9.3050451780167910E-007   2.3482351193595924E-006
 graz           2           8           1   6.9323087744369926E-017   2.4400617321289266E-016  0.85999999999999999        9.3050449688138906E-007   2.8166951299060644E-006
 graz           2           8           2   7.2547416319522299E-017   2.4400617321289266E-016  0.90000000000000002        9.3050448293452889E-007   2.8166951299060644E-006
 graz           2           8           3   1.6106555630854727E-017   2.4400617321289266E-016  0.20000000000000001        9.2963338196790574E-007   2.8166951299060644E-006
 graz           2           8           4   1.6106555630854727E-017   2.4400617321289266E-016  0.20000000000000001        9.2963338196790574E-007   2.8166951299060644E-006
 graz           2           8           5   5.4359631868790821E-018   2.4400617321289266E-016  0.67500000000000004        9.2963349508872135E-008   2.8166951299060644E-006
 graz           2           8           6   6.4486594700411950E-017   2.4400617321289266E-016  0.80000000000000004        9.3050451780167910E-007   2.8166951299060644E-006
 prey           2          29           1   8.3175872286877967E-017
 prey           2          29           2   8.7044516204857305E-017
 prey           2          29           3   9.6570601642088152E-017
 prey           2          29           4   9.6570601642088152E-017
 prey           2          29           5   6.5222279402109478E-018
 prey           2          29           6   7.7372906192464585E-017
 pred           2          29           7   1.4567145788726451E-016
 pred           2          29           8   1.9842624969648511E-016
 mort           2           1   5.2854639291121679E-013   1.6534391534391535E-006  0.34353929454879750        9.3050449688018902E-007   0.0000000000000000        0.0000000000000000       0.34353929454879750        8.6583861871425371E-013
 mort           2           2   5.2854638498910278E-013   1.6534391534391535E-006  0.34353929454879750        9.3050448293332886E-007   0.0000000000000000        0.0000000000000000       0.34353929454879750        8.6583859275902164E-013
 mort           2           3   5.2805158106788179E-013   1.6534391534391535E-006  0.34353929454879750        9.2963338196670571E-007   0.0000000000000000        0.0000000000000000       0.34353929454879750        8.6421822486685493E-013
 mort           2           4   5.2805158106788179E-013   1.6534391534391535E-006  0.34353929454879750        9.2963338196670571E-007   0.0000000000000000        0.0000000000000000       0.34353929454879750        8.6421822486685493E-013
 mort           2           5   5.2805164531678225E-014   1.6534391534391535E-006  0.34353929454879750        9.2963349507672140E-008   0.0000000000000000        0.0000000000000000       0.34353929454879750        8.6421843516856060E-015
 mort           2           6   5.2854640479438755E-013   1.6534391534391535E-006  0.34353929454879750        9.3050451780047906E-007   0.0000000000000000        0.0000000000000000       0.34353929454879750        8.6583865764710210E-013
 mort           2           7   2.0901741753166889E-011   2.3148148148148148E-007  0.34353929454879750        2.6256324140209417E-004   2.1929085175904886E-014   9.2592592592592583E-007  0.34353929454879750        6.8939455735574372E-008
 mort           2           8   2.0901741768296859E-011   2.3148148148148148E-007  0.34353929454879750        2.6256324159195445E-004   2.1929085207618855E-014   9.2592592592592583E-007  0.34353929454879750        6.8939455835275034E-008
 graz           2           7           1   3.8789394557605615E-019   5.6931524078478189E-018  0.17200000000000001        1.1025393402970764E-007   2.7833149403495969E-007
 graz           2           7           2   4.0593552299362112E-019   5.6931524078478189E-018  0.18000000000000002        1.1025393363684860E-007   2.7833149403495969E-007
 graz           2           7           3   2.2540309705495278E-018   5.6931524078478189E-018   1.0000000000000000        1.1019691072547346E-007   2.7833149403495969E-007
 graz           2           7           4   2.2540309705495278E-018   5.6931524078478189E-018   1.0000000000000000        1.1019691072547346E-007   2.7833149403495969E-007
 graz           2           7           5   3.0429418970450133E-020   5.6931524078478189E-018  0.13500000000000001        1.1019691386895750E-008   2.7833149403495969E-007
 graz           2           7           6   3.6083157920863580E-019   5.6931524078478189E-018  0.16000000000000003        1.1025393461899621E-007   2.7833149403495969E-007
 graz           2           8           1   1.9539837119584020E-018   6.8781549283486366E-018  0.85999999999999999        1.1025393402970764E-007   3.3376712721025328E-007
 graz           2           8           2   2.0448666680189938E-018   6.8781549283486366E-018  0.90000000000000002        1.1025393363684860E-007   3.3376712721025328E-007
 graz           2           8           3   4.5417979351678097E-019   6.8781549283486366E-018  0.20000000000000001        1.1019691072547346E-007   3.3376712721025328E-007
 graz           2           8           4   4.5417979351678097E-019   6.8781549283486366E-018  0.20000000000000001        1.1019691072547346E-007   3.3376712721025328E-007
 graz           2           8           5   1.5328568468455058E-019   6.8781549283486366E-018  0.67500000000000004        1.1019691386895750E-008   3.3376712721025328E-007
 graz           2           8           6   1.8176592766531284E-018   6.8781549283486366E-018  0.80000000000000004        1.1025393461899621E-007   3.3376712721025328E-007
 prey           2          30           1   2.3418776575344582E-018
 prey           2          30           2   2.4508021910126151E-018
 prey           2          30           3   2.7082107640663087E-018
 prey           2          30           4   2.7082107640663087E-018
 prey           2          30           5   1.8371510365500073E-019
 prey           2          30           6   2.1784908558617642E-018
 pred           2          30           7   4.0804857395787503E-018
 pred           2          30           8   5.5933599013822650E-018
 mort           2           1   6.1832780824556752E-014   1.6534391534391535E-006  0.33918486602956555        1.1025393402850765E-007   0.0000000000000000        0.0000000000000000       0.33918486602956555        1.2155929968762517E-014
 mort           2           2   6.1832780604232950E-014   1.6534391534391535E-006  0.33918486602956555        1.1025393363564861E-007   0.0000000000000000        0.0000000000000000       0.33918486602956555        1.2155929882134007E-014
 mort           2           3   6.1800800927388711E-014   1.6534391534391535E-006  0.33918486602956555        1.1019691072427346E-007   0.0000000000000000        0.0000000000000000       0.33918486602956555        1.2143359133173496E-014
 mort           2           4   6.1800800927388711E-014   1.6534391534391535E-006  0.33918486602956555        1.1019691072427346E-007   0.0000000000000000        0.0000000000000000       0.33918486602956555        1.2143359133173496E-014
 mort           2           5   6.1800802684265388E-015   1.6534391534391535E-006  0.33918486602956555        1.1019691385695751E-008   0.0000000000000000        0.0000000000000000       0.33918486602956555        1.2143359823597713E-016
 mort           2           6   6.1832781155042468E-014   1.6534391534391535E-006  0.33918486602956555        1.1025393461779621E-007   0.0000000000000000        0.0000000000000000       0.33918486602956555        1.2155930098705282E-014
 mort           2           7   5.1316265184122864E-012   2.3148148148148148E-007  0.33918486602956555        6.5341458807900563E-005   1.3408813904968924E-015   9.2592592592592583E-007  0.33918486602956555        4.2695062391445665E-009
 mort           2           8   5.1316265188405010E-012   2.3148148148148148E-007  0.33918486602956555        6.5341458813351647E-005   1.3408813907206173E-015   9.2592592592592583E-007  0.33918486602956555        4.2695062398569295E-009
 graz           2           7           1   3.2130354416800524E-021   4.7158497797101334E-020  0.17200000000000001        1.0344062659716546E-008   2.6113436960457323E-008
 graz           2           7           2   3.3624789494192258E-021   4.7158497797101334E-020  0.18000000000000002        1.0344062656098244E-008   2.6113436960457323E-008
 graz           2           7           3   1.8671027179336684E-020   4.7158497797101334E-020   1.0000000000000000        1.0338851193528957E-008   2.6113436960457323E-008
 graz           2           7           4   1.8671027179336684E-020   4.7158497797101334E-020   1.0000000000000000        1.0338851193528957E-008   2.6113436960457323E-008
 graz           2           7           5   2.5205886745341400E-022   4.7158497797101334E-020  0.13500000000000001        1.0338851215365449E-009   2.6113436960457323E-008
 graz           2           7           6   2.9888701798752643E-021   4.7158497797101334E-020  0.16000000000000003        1.0344062665144000E-008   2.6113436960457323E-008
 graz           2           8           1   1.8333791431472796E-020   6.4536320190713132E-020  0.85999999999999999        1.0344062659716546E-008   3.1314213344408596E-008
 graz           2           8           2   1.9186525909946225E-020   6.4536320190713132E-020  0.90000000000000002        1.0344062656098244E-008   3.1314213344408596E-008
 graz           2           8           3   4.2615243352352069E-021   6.4536320190713132E-020  0.20000000000000001        1.0338851193528957E-008   3.1314213344408596E-008
 graz           2           8           4   4.2615243352352069E-021   6.4536320190713132E-020  0.20000000000000001        1.0338851193528957E-008   3.1314213344408596E-008
 graz           2           8           5   1.4382644661796134E-021   6.4536320190713132E-020  0.67500000000000004        1.0338851215365449E-009   3.1314213344408596E-008
 graz           2           8           6   1.7054689712644097E-020   6.4536320190713132E-020  0.80000000000000004        1.0344062665144000E-008   3.1314213344408596E-008
 prey           2          31           1   2.1546826873152850E-020
 prey           2          31           2   2.2549004859365452E-020
 prey           2          31           3   2.2932551514571891E-020
 prey           2          31           4   2.2932551514571891E-020
 prey           2          31           5   1.6903233336330274E-021
 prey           2          31           6   2.0043559892519362E-020
 pred           2          31           7   3.3800220862309887E-020
 pred           2          31           8   5.2481361019617564E-020
 mort           2           1   5.7824076365771417E-015   1.6534391534391535E-006  0.33808767928551897        1.0344062658516547E-008   0.0000000000000000        0.0000000000000000       0.33808767928551897        1.0699963228331641E-016
 mort           2           2   5.7824076345544834E-015   1.6534391534391535E-006  0.33808767928551897        1.0344062654898245E-008   0.0000000000000000        0.0000000000000000       0.33808767928551897        1.0699963220846053E-016
 mort           2           3   5.7794943883809833E-015   1.6534391534391535E-006  0.33808767928551897        1.0338851192328958E-008   0.0000000000000000        0.0000000000000000       0.33808767928551897        1.0689184397712193E-016
 mort           2           4   5.7794943883809833E-015   1.6534391534391535E-006  0.33808767928551897        1.0338851192328958E-008   0.0000000000000000        0.0000000000000000       0.33808767928551897        1.0689184397712193E-016
 mort           2           5   5.7794943945504626E-016   1.6534391534391535E-006  0.33808767928551897        1.0338851203365449E-009   0.0000000000000000        0.0000000000000000       0.33808767928551897        1.0689184420533118E-018
 mort           2           6   5.7824076396111283E-015   1.6534391534391535E-006  0.33808767928551897        1.0344062663944001E-008   0.0000000000000000        0.0000000000000000       0.33808767928551897        1.0699963239560027E-016
 mort           2           7   8.0196648266886684E-013   2.3148148148148148E-007  0.33808767928551897        1.0246907597525689E-005   3.2869358539763272E-017   9.2592592592592583E-007  0.33808767928551897        1.0499911531222967E-010
 mort           2           8   8.0196648267413597E-013   2.3148148148148148E-007  0.33808767928551897        1.0246907597593012E-005   3.2869358540195185E-017   9.2592592592592583E-007  0.33808767928551897        1.0499911531360940E-010
 graz           2           7           1   0.0000000000000000        0.0000000000000000       0.17200000000000001        6.9197873646770851E-010   1.2000000000000000E-008
 graz           2           7           2   0.0000000000000000        0.0000000000000000       0.18000000000000002        6.9197873646770779E-010   1.2000000000000000E-008
 graz           2           7           3   0.0000000000000000        0.0000000000000000        1.0000000000000000        6.9147525545316680E-010   1.2000000000000000E-008
 graz           2           7           4   0.0000000000000000        0.0000000000000000        1.0000000000000000        6.9147525545316680E-010   1.2000000000000000E-008
 graz           2           7           5   0.0000000000000000        0.0000000000000000       0.13500000000000001        6.9147525547476779E-011   1.2000000000000000E-008
 graz           2           7           6   0.0000000000000000        0.0000000000000000       0.16000000000000003        6.9197873646770975E-010   1.2000000000000000E-008
 graz           2           8           1   0.0000000000000000        0.0000000000000000       0.85999999999999999        6.9197873646770851E-010   1.2000000000000000E-008
 graz           2           8           2   0.0000000000000000        0.0000000000000000       0.90000000000000002        6.9197873646770779E-010   1.2000000000000000E-008
 graz           2           8           3   0.0000000000000000        0.0000000000000000       0.20000000000000001        6.9147525545316680E-010   1.2000000000000000E-008
 graz           2           8           4   0.0000000000000000        0.0000000000000000       0.20000000000000001        6.9147525545316680E-010   1.2000000000000000E-008
 graz           2           8           5   0.0000000000000000        0.0000000000000000       0.67500000000000004        6.9147525547476779E-011   1.2000000000000000E-008
 graz           2           8           6   0.0000000000000000        0.0000000000000000       0.80000000000000004        6.9197873646770975E-010   1.2000000000000000E-008
 prey           2          32           1   0.0000000000000000     
 prey           2          32           2   0.0000000000000000     
 prey           2          32           3   0.0000000000000000     
 prey           2          32           4   0.0000000000000000     
 prey           2          32           5   0.0000000000000000     
 prey           2          32           6   0.0000000000000000     
 pred           2          32           7   0.0000000000000000     
 pred           2          32           8   0.0000000000000000     
 mort           2           1   3.8436040817577688E-016   1.6534391534391535E-006  0.33593687640527958        6.9197873526770850E-010   0.0000000000000000        0.0000000000000000       0.33593687640527958        4.7883457006269739E-019
 mort           2           2   3.8436040817577648E-016   1.6534391534391535E-006  0.33593687640527958        6.9197873526770777E-010   0.0000000000000000        0.0000000000000000       0.33593687640527958        4.7883457006269643E-019
 mort           2           3   3.8408074904986012E-016   1.6534391534391535E-006  0.33593687640527958        6.9147525425316678E-010   0.0000000000000000        0.0000000000000000       0.33593687640527958        4.7813802724448167E-019
 mort           2           4   3.8408074904986012E-016   1.6534391534391535E-006  0.33593687640527958        6.9147525425316678E-010   0.0000000000000000        0.0000000000000000       0.33593687640527958        4.7813802724448167E-019
 mort           2           5   3.8408074306298560E-017   1.6534391534391535E-006  0.33593687640527958        6.9147524347476778E-011   0.0000000000000000        0.0000000000000000       0.33593687640527958        4.7813801233848937E-021
 mort           2           6   3.8436040817577762E-016   1.6534391534391535E-006  0.33593687640527958        6.9197873526770974E-010   0.0000000000000000        0.0000000000000000       0.33593687640527958        4.7883457006269913E-019
 mort           2           7   6.6033110889672652E-014   2.3148148148148148E-007  0.33593687640527958        8.4915378499196062E-007   2.2428830236599401E-019   9.2592592592592583E-007  0.33593687640527958        7.2106215056617291E-013
 mort           2           8   6.6033110889672652E-014   2.3148148148148148E-007  0.33593687640527958        8.4915378499196062E-007   2.2428830236599401E-019   9.2592592592592583E-007  0.33593687640527958        7.2106215056617291E-013
 graz           2           7           1   0.0000000000000000        0.0000000000000000       0.17200000000000001        4.6271526075896420E-011   1.2000000000000000E-008
 graz           2           7           2   0.0000000000000000        0.0000000000000000       0.18000000000000002        4.6271526075896420E-011   1.2000000000000000E-008
 graz           2           7           3   0.0000000000000000        0.0000000000000000        1.0000000000000000        4.6237852569845513E-011   1.2000000000000000E-008
 graz           2           7           4   0.0000000000000000        0.0000000000000000        1.0000000000000000        4.6237852569845513E-011   1.2000000000000000E-008
 graz           2           7           5   0.0000000000000000        0.0000000000000000       0.13500000000000001        4.6237852591189886E-012   1.2000000000000000E-008
 graz           2           7           6   0.0000000000000000        0.0000000000000000       0.16000000000000003        4.6271526075896420E-011   1.2000000000000000E-008
 graz           2           8           1   0.0000000000000000        0.0000000000000000       0.85999999999999999        4.6271526075896420E-011   1.2000000000000000E-008
 graz           2           8           2   0.0000000000000000        0.0000000000000000       0.90000000000000002        4.6271526075896420E-011   1.2000000000000000E-008
 graz           2           8           3   0.0000000000000000        0.0000000000000000       0.20000000000000001        4.6237852569845513E-011   1.2000000000000000E-008
 graz           2           8           4   0.0000000000000000        0.0000000000000000       0.20000000000000001        4.6237852569845513E-011   1.2000000000000000E-008
 graz           2           8           5   0.0000000000000000        0.0000000000000000       0.67500000000000004        4.6237852591189886E-012   1.2000000000000000E-008
 graz           2           8           6   0.0000000000000000        0.0000000000000000       0.80000000000000004        4.6271526075896420E-011   1.2000000000000000E-008
 prey           2          33           1   0.0000000000000000     
 prey           2          33           2   0.0000000000000000     
 prey           2          33           3   0.0000000000000000     
 prey           2          33           4   0.0000000000000000     
 prey           2          33           5   0.0000000000000000     
 prey           2          33           6   0.0000000000000000     
 pred           2          33           7   0.0000000000000000     
 pred           2          33           8   0.0000000000000000     
 mort           2           1   2.5402171726214298E-017   1.6534391534391535E-006  0.33202349611817877        4.6271524875896419E-011   0.0000000000000000        0.0000000000000000       0.33202349611817877        2.1410540143407010E-021
 mort           2           2   2.5402171726214298E-017   1.6534391534391535E-006  0.33202349611817877        4.6271524875896419E-011   0.0000000000000000        0.0000000000000000       0.33202349611817877        2.1410540143407010E-021
 mort           2           3   2.5383685623030474E-017   1.6534391534391535E-006  0.33202349611817877        4.6237851369845513E-011   0.0000000000000000        0.0000000000000000       0.33202349611817877        2.1379388992999247E-021
 mort           2           4   2.5383685623030474E-017   1.6534391534391535E-006  0.33202349611817877        4.6237851369845513E-011   0.0000000000000000        0.0000000000000000       0.33202349611817877        2.1379388992999247E-021
 mort           2           5   2.5383679705757118E-018   1.6534391534391535E-006  0.33202349611817877        4.6237840591189887E-012   0.0000000000000000        0.0000000000000000       0.33202349611817877        2.1379379025362873E-023
 mort           2           6   2.5402171726214298E-017   1.6534391534391535E-006  0.33202349611817877        4.6271524875896419E-011   0.0000000000000000        0.0000000000000000       0.33202349611817877        2.1410540143407010E-021
 mort           2           7   2.7279113411986469E-015   2.3148148148148148E-007  0.33202349611817877        3.5493196893193975E-008   3.8728912237684528E-022   9.2592592592592583E-007  0.33202349611817877        1.2597670256990344E-015
 mort           2           8   2.7279113411986469E-015   2.3148148148148148E-007  0.33202349611817877        3.5493196893193975E-008   3.8728912237684528E-022   9.2592592592592583E-007  0.33202349611817877        1.2597670256990344E-015
 graz           2           7           1   0.0000000000000000        0.0000000000000000       0.17200000000000001        1.7428223328505135E-012   1.2000000000000000E-008
 graz           2           7           2   0.0000000000000000        0.0000000000000000       0.18000000000000002        1.7428223328505135E-012   1.2000000000000000E-008
 graz           2           7           3   0.0000000000000000        0.0000000000000000        1.0000000000000000        1.7409646226091198E-012   1.2000000000000000E-008
 graz           2           7           4   0.0000000000000000        0.0000000000000000        1.0000000000000000        1.7409646226091198E-012   1.2000000000000000E-008
 graz           2           7           5   0.0000000000000000        0.0000000000000000       0.13500000000000001        1.7409646436024505E-013   1.2000000000000000E-008
 graz           2           7           6   0.0000000000000000        0.0000000000000000       0.16000000000000003        1.7428223328505135E-012   1.2000000000000000E-008
 graz           2           8           1   0.0000000000000000        0.0000000000000000       0.85999999999999999        1.7428223328505135E-012   1.2000000000000000E-008
 graz           2           8           2   0.0000000000000000        0.0000000000000000       0.90000000000000002        1.7428223328505135E-012   1.2000000000000000E-008
 graz           2           8           3   0.0000000000000000        0.0000000000000000       0.20000000000000001        1.7409646226091198E-012   1.2000000000000000E-008
 graz           2           8           4   0.0000000000000000        0.0000000000000000       0.20000000000000001        1.7409646226091198E-012   1.2000000000000000E-008
 graz           2           8           5   0.0000000000000000        0.0000000000000000       0.67500000000000004        1.7409646436024505E-013   1.2000000000000000E-008
 graz           2           8           6   0.0000000000000000        0.0000000000000000       0.80000000000000004        1.7428223328505135E-012   1.2000000000000000E-008
 prey           2          34           1   0.0000000000000000     
 prey           2          34           2   0.0000000000000000     
 prey           2          34           3   0.0000000000000000     
 prey           2          34           4   0.0000000000000000     
 prey           2          34           5   0.0000000000000000     
 prey           2          34           6   0.0000000000000000     
 pred           2          34           7   0.0000000000000000     
 pred           2          34           8   0.0000000000000000     
 mort           2           1   9.4103960386317689E-019   1.6534391534391535E-006  0.32656291669218940        1.7428211328505134E-012   0.0000000000000000        0.0000000000000000       0.32656291669218940        3.0374255011103467E-024
 mort           2           2   9.4103960386317689E-019   1.6534391534391535E-006  0.32656291669218940        1.7428211328505134E-012   0.0000000000000000        0.0000000000000000       0.32656291669218940        3.0374255011103467E-024
 mort           2           3   9.4003652966542817E-019   1.6534391534391535E-006  0.32656291669218940        1.7409634226091197E-012   0.0000000000000000        0.0000000000000000       0.32656291669218940        3.0309536388628605E-024
 mort           2           4   9.4003652966542817E-019   1.6534391534391535E-006  0.32656291669218940        1.7409634226091197E-012   0.0000000000000000        0.0000000000000000       0.32656291669218940        3.0309536388628605E-024
 mort           2           5   9.4003070952016181E-020   1.6534391534391535E-006  0.32656291669218940        1.7409526436024504E-013   0.0000000000000000        0.0000000000000000       0.32656291669218940        3.0309161072663604E-026
 mort           2           6   9.4103960386317689E-019   1.6534391534391535E-006  0.32656291669218940        1.7428211328505134E-012   0.0000000000000000        0.0000000000000000       0.32656291669218940        3.0374255011103467E-024
 mort           2           7   1.0803767524644479E-016   2.3148148148148148E-007  0.32656291669218940        1.4291970414889710E-009   6.1762849979540925E-025   9.2592592592592583E-007  0.32656291669218940        2.0426041834008276E-018
 mort           2           8   1.0803767524644479E-016   2.3148148148148148E-007  0.32656291669218940        1.4291970414889710E-009   6.1762849979540925E-025   9.2592592592592583E-007  0.32656291669218940        2.0426041834008276E-018
 graz           2           7           1   0.0000000000000000        0.0000000000000000       0.17200000000000001        4.0113850773843051E-014   1.2000000000000000E-008
 graz           2           7           2   0.0000000000000000        0.0000000000000000       0.18000000000000002        4.0113850773843051E-014   1.2000000000000000E-008
 graz           2           7           3   0.0000000000000000        0.0000000000000000        1.0000000000000000        4.0041169331084168E-014   1.2000000000000000E-008
 graz           2           7           4   0.0000000000000000        0.0000000000000000        1.0000000000000000        4.0041169331084168E-014   1.2000000000000000E-008
 graz           2           7           5   0.0000000000000000        0.0000000000000000       0.13500000000000001        4.0041189863000801E-015   1.2000000000000000E-008
 graz           2           7           6   0.0000000000000000        0.0000000000000000       0.16000000000000003        4.0113850773843051E-014   1.2000000000000000E-008
 graz           2           8           1   0.0000000000000000        0.0000000000000000       0.85999999999999999        4.0113850773843051E-014   1.2000000000000000E-008
 graz           2           8           2   0.0000000000000000        0.0000000000000000       0.90000000000000002        4.0113850773843051E-014   1.2000000000000000E-008
 graz           2           8           3   0.0000000000000000        0.0000000000000000       0.20000000000000001        4.0041169331084168E-014   1.2000000000000000E-008
 graz           2           8           4   0.0000000000000000        0.0000000000000000       0.20000000000000001        4.0041169331084168E-014   1.2000000000000000E-008
 graz           2           8           5   0.0000000000000000        0.0000000000000000       0.67500000000000004        4.0041189863000801E-015   1.2000000000000000E-008
 graz           2           8           6   0.0000000000000000        0.0000000000000000       0.80000000000000004        4.0113850773843051E-014   1.2000000000000000E-008
 prey           2          35           1   0.0000000000000000     
 prey           2          35           2   0.0000000000000000     
 prey           2          35           3   0.0000000000000000     
 prey           2          35           4   0.0000000000000000     
 prey           2          35           5   0.0000000000000000     
 prey           2          35           6   0.0000000000000000     
 pred           2          35           7   0.0000000000000000     
 pred           2          35           8   0.0000000000000000     
 mort           2           1   2.1182860730439196E-020   1.6534391534391535E-006  0.31938537899180108        4.0112650773843052E-014   0.0000000000000000        0.0000000000000000       0.31938537899180108        1.6090247521042916E-027
 mort           2           2   2.1182860730439196E-020   1.6534391534391535E-006  0.31938537899180108        4.0112650773843052E-014   0.0000000000000000        0.0000000000000000       0.31938537899180108        1.6090247521042916E-027
 mort           2           3   2.1144478802295652E-020   1.6534391534391535E-006  0.31938537899180108        4.0039969331084169E-014   0.0000000000000000        0.0000000000000000       0.31938537899180108        1.6031991440341608E-027
 mort           2           4   2.1144478802295652E-020   1.6534391534391535E-006  0.31938537899180108        4.0039969331084169E-014   0.0000000000000000        0.0000000000000000       0.31938537899180108        1.6031991440341608E-027
 mort           2           5   2.1138786334539141E-021   1.6534391534391535E-006  0.31938537899180108        4.0029189863000800E-015   0.0000000000000000        0.0000000000000000       0.31938537899180108        1.6023360410881661E-029
 mort           2           6   2.1182860730439196E-020   1.6534391534391535E-006  0.31938537899180108        4.0112650773843052E-014   0.0000000000000000        0.0000000000000000       0.31938537899180108        1.6090247521042916E-027
 mort           2           7   1.7844255918894812E-016   2.3148148148148148E-007  0.31938537899180108        2.4136103245781573E-009   1.7227631961780602E-024   9.2592592592592583E-007  0.31938537899180108        5.8255147989102779E-018
 mort           2           8   1.7844255918894812E-016   2.3148148148148148E-007  0.31938537899180108        2.4136103245781573E-009   1.7227631961780602E-024   9.2592592592592583E-007  0.31938537899180108        5.8255147989102779E-018
(PID.TID 0000.0001) totgC   -1.6525021299376227E+06  -5.3632088150368632E-08
(PID.TID 0000.0001) totgN    1.9119672775647418E+03   6.2053050167531860E-11
(PID.TID 0000.0001) totgP    1.3965771019093629E-11   4.5326020996545774E-25
(PID.TID 0000.0001) totgFe   2.9642365316052636E+01   9.6204532557908081E-13
(PID.TID 0000.0001) totgSi   2.2522770402627656E-12   7.3097830601273498E-26
(PID.TID 0000.0001) totgA   -6.1711254422055522E+05  -2.0028436738889044E-08
(PID.TID 0000.0001) totgO   -3.1258646025957703E+06  -1.0145018446594168E-07
 fe   3.2653875884630720E-006
(PID.TID 0000.0001) // =======================================================
(PID.TID 0000.0001) // Begin MONITOR dynamic field statistics
(PID.TID 0000.0001) // =======================================================
(PID.TID 0000.0001) %MON time_tsnumber                =                     2
(PID.TID 0000.0001) %MON time_secondsf                =   7.2000000000000000E+03
(PID.TID 0000.0001) %MON dynstat_eta_max              =   0.0000000000000000E+00
(PID.TID 0000.0001) %MON dynstat_eta_min              =   0.0000000000000000E+00
(PID.TID 0000.0001) %MON dynstat_eta_mean             =   0.0000000000000000E+00
(PID.TID 0000.0001) %MON dynstat_eta_sd               =   0.0000000000000000E+00
(PID.TID 0000.0001) %MON dynstat_eta_del2             =   0.0000000000000000E+00
(PID.TID 0000.0001) %MON dynstat_uvel_max             =   0.0000000000000000E+00
(PID.TID 0000.0001) %MON dynstat_uvel_min             =   0.0000000000000000E+00
(PID.TID 0000.0001) %MON dynstat_uvel_mean            =   0.0000000000000000E+00
(PID.TID 0000.0001) %MON dynstat_uvel_sd              =   0.0000000000000000E+00
(PID.TID 0000.0001) %MON dynstat_uvel_del2            =   0.0000000000000000E+00
(PID.TID 0000.0001) %MON dynstat_vvel_max             =   0.0000000000000000E+00
(PID.TID 0000.0001) %MON dynstat_vvel_min             =   0.0000000000000000E+00
(PID.TID 0000.0001) %MON dynstat_vvel_mean            =   0.0000000000000000E+00
(PID.TID 0000.0001) %MON dynstat_vvel_sd              =   0.0000000000000000E+00
(PID.TID 0000.0001) %MON dynstat_vvel_del2            =   0.0000000000000000E+00
(PID.TID 0000.0001) %MON dynstat_wvel_max             =   0.0000000000000000E+00
(PID.TID 0000.0001) %MON dynstat_wvel_min             =   0.0000000000000000E+00
(PID.TID 0000.0001) %MON dynstat_wvel_mean            =   0.0000000000000000E+00
(PID.TID 0000.0001) %MON dynstat_wvel_sd              =   0.0000000000000000E+00
(PID.TID 0000.0001) %MON dynstat_wvel_del2            =   0.0000000000000000E+00
(PID.TID 0000.0001) %MON dynstat_theta_max            =   8.2719359074106933E+00
(PID.TID 0000.0001) %MON dynstat_theta_min            =   1.5167012383938983E+00
(PID.TID 0000.0001) %MON dynstat_theta_mean           =   2.8238790423732119E+00
(PID.TID 0000.0001) %MON dynstat_theta_sd             =   1.3642220709211459E+00
(PID.TID 0000.0001) %MON dynstat_theta_del2           =   0.0000000000000000E+00
(PID.TID 0000.0001) %MON dynstat_salt_max             =   3.5000000000000000E+01
(PID.TID 0000.0001) %MON dynstat_salt_min             =   3.5000000000000000E+01
(PID.TID 0000.0001) %MON dynstat_salt_mean            =   3.4999999999999986E+01
(PID.TID 0000.0001) %MON dynstat_salt_sd              =   1.4210854715202004E-14
(PID.TID 0000.0001) %MON dynstat_salt_del2            =   0.0000000000000000E+00
(PID.TID 0000.0001) %MON dynstat_sst_max              =   8.2719359074106933E+00
(PID.TID 0000.0001) %MON dynstat_sst_min              =   8.2719359074106933E+00
(PID.TID 0000.0001) %MON dynstat_sst_mean             =   8.2719359074106933E+00
(PID.TID 0000.0001) %MON dynstat_sst_sd               =   0.0000000000000000E+00
(PID.TID 0000.0001) %MON dynstat_sst_del2             =   0.0000000000000000E+00
(PID.TID 0000.0001) %MON dynstat_sss_max              =   3.5000000000000000E+01
(PID.TID 0000.0001) %MON dynstat_sss_min              =   3.5000000000000000E+01
(PID.TID 0000.0001) %MON dynstat_sss_mean             =   3.5000000000000000E+01
(PID.TID 0000.0001) %MON dynstat_sss_sd               =   0.0000000000000000E+00
(PID.TID 0000.0001) %MON dynstat_sss_del2             =   0.0000000000000000E+00
(PID.TID 0000.0001) %MON forcing_qnet_max             =   0.0000000000000000E+00
(PID.TID 0000.0001) %MON forcing_qnet_min             =   0.0000000000000000E+00
(PID.TID 0000.0001) %MON forcing_qnet_mean            =   0.0000000000000000E+00
(PID.TID 0000.0001) %MON forcing_qnet_sd              =   0.0000000000000000E+00
(PID.TID 0000.0001) %MON forcing_qnet_del2            =   0.0000000000000000E+00
(PID.TID 0000.0001) %MON forcing_qsw_max              =   0.0000000000000000E+00
(PID.TID 0000.0001) %MON forcing_qsw_min              =   0.0000000000000000E+00
(PID.TID 0000.0001) %MON forcing_qsw_mean             =   0.0000000000000000E+00
(PID.TID 0000.0001) %MON forcing_qsw_sd               =   0.0000000000000000E+00
(PID.TID 0000.0001) %MON forcing_qsw_del2             =   0.0000000000000000E+00
(PID.TID 0000.0001) %MON forcing_empmr_max            =   0.0000000000000000E+00
(PID.TID 0000.0001) %MON forcing_empmr_min            =   0.0000000000000000E+00
(PID.TID 0000.0001) %MON forcing_empmr_mean           =   0.0000000000000000E+00
(PID.TID 0000.0001) %MON forcing_empmr_sd             =   0.0000000000000000E+00
(PID.TID 0000.0001) %MON forcing_empmr_del2           =   0.0000000000000000E+00
(PID.TID 0000.0001) %MON forcing_fu_max               =   2.2646569665935306E+00
(PID.TID 0000.0001) %MON forcing_fu_min               =   2.2646569665935306E+00
(PID.TID 0000.0001) %MON forcing_fu_mean              =   2.2646569665935306E+00
(PID.TID 0000.0001) %MON forcing_fu_sd                =   0.0000000000000000E+00
(PID.TID 0000.0001) %MON forcing_fu_del2              =   0.0000000000000000E+00
(PID.TID 0000.0001) %MON forcing_fv_max               =  -4.1312500250836215E-01
(PID.TID 0000.0001) %MON forcing_fv_min               =  -4.1312500250836215E-01
(PID.TID 0000.0001) %MON forcing_fv_mean              =  -4.1312500250836215E-01
(PID.TID 0000.0001) %MON forcing_fv_sd                =   0.0000000000000000E+00
(PID.TID 0000.0001) %MON forcing_fv_del2              =   0.0000000000000000E+00
(PID.TID 0000.0001) %MON advcfl_uvel_max              =   0.0000000000000000E+00
(PID.TID 0000.0001) %MON advcfl_vvel_max              =   0.0000000000000000E+00
(PID.TID 0000.0001) %MON advcfl_wvel_max              =   0.0000000000000000E+00
(PID.TID 0000.0001) %MON advcfl_W_hf_max              =   0.0000000000000000E+00
(PID.TID 0000.0001) %MON pe_b_mean                    =   0.0000000000000000E+00
(PID.TID 0000.0001) %MON ke_max                       =   0.0000000000000000E+00
(PID.TID 0000.0001) %MON ke_mean                      =   0.0000000000000000E+00
(PID.TID 0000.0001) %MON ke_vol                       =   3.0811817830111180E+13
(PID.TID 0000.0001) %MON vort_r_min                   =   0.0000000000000000E+00
(PID.TID 0000.0001) %MON vort_r_max                   =   0.0000000000000000E+00
(PID.TID 0000.0001) %MON vort_a_mean                  =  -1.0312619976227577E-04
(PID.TID 0000.0001) %MON vort_a_sd                    =   2.8760747774580336E-12
(PID.TID 0000.0001) %MON vort_p_mean                  =  -1.0312619976227577E-04
(PID.TID 0000.0001) %MON vort_p_sd                    =   2.8760747774580336E-12
(PID.TID 0000.0001) %MON surfExpan_theta_mean         =   0.0000000000000000E+00
(PID.TID 0000.0001) %MON surfExpan_salt_mean          =   0.0000000000000000E+00
(PID.TID 0000.0001) // =======================================================
(PID.TID 0000.0001) // End MONITOR dynamic field statistics
(PID.TID 0000.0001) // =======================================================
(PID.TID 0000.0001) // =======================================================
(PID.TID 0000.0001) // Begin MONITOR ptracer field statistics
(PID.TID 0000.0001) // =======================================================
(PID.TID 0000.0001) %MON trcstat_ptracer01_max        =   2.2359128925193377E+03
(PID.TID 0000.0001) %MON trcstat_ptracer01_min        =   2.0732758597458924E+03
(PID.TID 0000.0001) %MON trcstat_ptracer01_mean       =   2.2089823937914498E+03
(PID.TID 0000.0001) %MON trcstat_ptracer01_sd         =   4.0007255643180287E+01
(PID.TID 0000.0001) %MON trcstat_ptracer01_del2       =   0.0000000000000000E+00
(PID.TID 0000.0001) %MON trcstat_ptracer02_max        =   3.5593936284389777E-01
(PID.TID 0000.0001) %MON trcstat_ptracer02_min        =   3.2884722793917938E-05
(PID.TID 0000.0001) %MON trcstat_ptracer02_mean       =   6.1949905318159490E-03
(PID.TID 0000.0001) %MON trcstat_ptracer02_sd         =   4.2221900383851860E-02
(PID.TID 0000.0001) %MON trcstat_ptracer02_del2       =   0.0000000000000000E+00
(PID.TID 0000.0001) %MON trcstat_ptracer03_max        =   2.5483345327928858E-01
(PID.TID 0000.0001) %MON trcstat_ptracer03_min        =   6.6229756982014436E-04
(PID.TID 0000.0001) %MON trcstat_ptracer03_mean       =   1.7423920753312269E-02
(PID.TID 0000.0001) %MON trcstat_ptracer03_sd         =   3.7055006808459551E-02
(PID.TID 0000.0001) %MON trcstat_ptracer03_del2       =   0.0000000000000000E+00
(PID.TID 0000.0001) %MON trcstat_ptracer04_max        =   3.4239107465068869E+01
(PID.TID 0000.0001) %MON trcstat_ptracer04_min        =   1.4586552214891370E+01
(PID.TID 0000.0001) %MON trcstat_ptracer04_mean       =   2.9892518593846464E+01
(PID.TID 0000.0001) %MON trcstat_ptracer04_sd         =   3.8825529204731750E+00
(PID.TID 0000.0001) %MON trcstat_ptracer04_del2       =   0.0000000000000000E+00
(PID.TID 0000.0001) %MON trcstat_ptracer05_max        =   2.3348089686507332E+00
(PID.TID 0000.0001) %MON trcstat_ptracer05_min        =   1.1961924446396075E+00
(PID.TID 0000.0001) %MON trcstat_ptracer05_mean       =   2.0209517061585327E+00
(PID.TID 0000.0001) %MON trcstat_ptracer05_sd         =   2.4242274526048385E-01
(PID.TID 0000.0001) %MON trcstat_ptracer05_del2       =   0.0000000000000000E+00
(PID.TID 0000.0001) %MON trcstat_ptracer06_max        =   9.3254117096560691E+01
(PID.TID 0000.0001) %MON trcstat_ptracer06_min        =   3.4135276664383185E+00
(PID.TID 0000.0001) %MON trcstat_ptracer06_mean       =   6.1182574381875497E+01
(PID.TID 0000.0001) %MON trcstat_ptracer06_sd         =   2.6240956232667411E+01
(PID.TID 0000.0001) %MON trcstat_ptracer06_del2       =   0.0000000000000000E+00
(PID.TID 0000.0001) %MON trcstat_ptracer07_max        =   8.4207397186777380E-04
(PID.TID 0000.0001) %MON trcstat_ptracer07_min        =   2.6602992224561134E-06
(PID.TID 0000.0001) %MON trcstat_ptracer07_mean       =   6.1939213014572695E-04
(PID.TID 0000.0001) %MON trcstat_ptracer07_sd         =   1.7664489104380596E-04
(PID.TID 0000.0001) %MON trcstat_ptracer07_del2       =   0.0000000000000000E+00
(PID.TID 0000.0001) %MON trcstat_ptracer08_max        =   1.2564467516551456E+01
(PID.TID 0000.0001) %MON trcstat_ptracer08_min        =   6.8059883290606626E-09
(PID.TID 0000.0001) %MON trcstat_ptracer08_mean       =   5.3412656422772620E-01
(PID.TID 0000.0001) %MON trcstat_ptracer08_sd         =   1.9396177350444459E+00
(PID.TID 0000.0001) %MON trcstat_ptracer08_del2       =   0.0000000000000000E+00
(PID.TID 0000.0001) %MON trcstat_ptracer09_max        =   1.6753246851649133E+00
(PID.TID 0000.0001) %MON trcstat_ptracer09_min        =   9.0746821996290581E-10
(PID.TID 0000.0001) %MON trcstat_ptracer09_mean       =   7.1221028140084741E-02
(PID.TID 0000.0001) %MON trcstat_ptracer09_sd         =   2.5862872686182298E-01
(PID.TID 0000.0001) %MON trcstat_ptracer09_del2       =   0.0000000000000000E+00
(PID.TID 0000.0001) %MON trcstat_ptracer10_max        =   1.0470389944043611E-01
(PID.TID 0000.0001) %MON trcstat_ptracer10_min        =   5.6716568022331216E-11
(PID.TID 0000.0001) %MON trcstat_ptracer10_mean       =   4.4510547746865097E-03
(PID.TID 0000.0001) %MON trcstat_ptracer10_sd         =   1.6163481450180577E-02
(PID.TID 0000.0001) %MON trcstat_ptracer10_del2       =   0.0000000000000000E+00
(PID.TID 0000.0001) %MON trcstat_ptracer11_max        =   1.0471158921646897E-04
(PID.TID 0000.0001) %MON trcstat_ptracer11_min        =   5.6716958877251377E-14
(PID.TID 0000.0001) %MON trcstat_ptracer11_mean       =   4.4515674192113664E-06
(PID.TID 0000.0001) %MON trcstat_ptracer11_sd         =   1.6165088345546863E-05
(PID.TID 0000.0001) %MON trcstat_ptracer11_del2       =   0.0000000000000000E+00
(PID.TID 0000.0001) %MON trcstat_ptracer12_max        =   1.2593575859482067E+00
(PID.TID 0000.0001) %MON trcstat_ptracer12_min        =   4.6412218122514316E-02
(PID.TID 0000.0001) %MON trcstat_ptracer12_mean       =   4.6848010766074538E-01
(PID.TID 0000.0001) %MON trcstat_ptracer12_sd         =   4.4370819980222342E-01
(PID.TID 0000.0001) %MON trcstat_ptracer12_del2       =   0.0000000000000000E+00
(PID.TID 0000.0001) %MON trcstat_ptracer13_max        =   1.6791461491944495E-01
(PID.TID 0000.0001) %MON trcstat_ptracer13_min        =   6.1903245873838548E-03
(PID.TID 0000.0001) %MON trcstat_ptracer13_mean       =   6.2466594488485655E-02
(PID.TID 0000.0001) %MON trcstat_ptracer13_sd         =   5.9160293138027731E-02
(PID.TID 0000.0001) %MON trcstat_ptracer13_del2       =   0.0000000000000000E+00
(PID.TID 0000.0001) %MON trcstat_ptracer14_max        =   1.0494646650183310E-02
(PID.TID 0000.0001) %MON trcstat_ptracer14_min        =   3.8676847662600815E-04
(PID.TID 0000.0001) %MON trcstat_ptracer14_mean       =   3.9040008596830204E-03
(PID.TID 0000.0001) %MON trcstat_ptracer14_sd         =   3.6975682274911631E-03
(PID.TID 0000.0001) %MON trcstat_ptracer14_del2       =   0.0000000000000000E+00
(PID.TID 0000.0001) %MON trcstat_ptracer15_max        =   5.9339208222803086E-01
(PID.TID 0000.0001) %MON trcstat_ptracer15_min        =   7.7251079571533293E-02
(PID.TID 0000.0001) %MON trcstat_ptracer15_mean       =   3.0107075392088462E-01
(PID.TID 0000.0001) %MON trcstat_ptracer15_sd         =   1.6089493220795367E-01
(PID.TID 0000.0001) %MON trcstat_ptracer15_del2       =   0.0000000000000000E+00
(PID.TID 0000.0001) %MON trcstat_ptracer16_max        =   1.0494681399613188E-05
(PID.TID 0000.0001) %MON trcstat_ptracer16_min        =   3.8702416677271280E-07
(PID.TID 0000.0001) %MON trcstat_ptracer16_mean       =   3.9043265734898228E-06
(PID.TID 0000.0001) %MON trcstat_ptracer16_sd         =   3.6974663506705755E-06
(PID.TID 0000.0001) %MON trcstat_ptracer16_del2       =   0.0000000000000000E+00
(PID.TID 0000.0001) %MON trcstat_ptracer17_max        =   8.2636185856299213E-02
(PID.TID 0000.0001) %MON trcstat_ptracer17_min        =   4.8025317678598257E-03
(PID.TID 0000.0001) %MON trcstat_ptracer17_mean       =   5.5132370566906216E-02
(PID.TID 0000.0001) %MON trcstat_ptracer17_sd         =   1.7451534423618697E-02
(PID.TID 0000.0001) %MON trcstat_ptracer17_del2       =   0.0000000000000000E+00
(PID.TID 0000.0001) %MON trcstat_ptracer18_max        =   2.3510737465602342E+03
(PID.TID 0000.0001) %MON trcstat_ptracer18_min        =   2.2764318270127442E+03
(PID.TID 0000.0001) %MON trcstat_ptracer18_mean       =   2.3233193254883336E+03
(PID.TID 0000.0001) %MON trcstat_ptracer18_sd         =   2.5001274128539947E+01
(PID.TID 0000.0001) %MON trcstat_ptracer18_del2       =   0.0000000000000000E+00
(PID.TID 0000.0001) %MON trcstat_ptracer19_max        =   2.9102825427637691E+02
(PID.TID 0000.0001) %MON trcstat_ptracer19_min        =   1.9290105550101376E+02
(PID.TID 0000.0001) %MON trcstat_ptracer19_mean       =   2.2201990831460117E+02
(PID.TID 0000.0001) %MON trcstat_ptracer19_sd         =   2.3972771636276896E+01
(PID.TID 0000.0001) %MON trcstat_ptracer19_del2       =   0.0000000000000000E+00
(PID.TID 0000.0001) %MON trcstat_ptracer20_max        =   2.9966604910251560E-01
(PID.TID 0000.0001) %MON trcstat_ptracer20_min        =   4.0110210072415575E-14
(PID.TID 0000.0001) %MON trcstat_ptracer20_mean       =   4.5460945181591619E-03
(PID.TID 0000.0001) %MON trcstat_ptracer20_sd         =   2.5894458903626336E-02
(PID.TID 0000.0001) %MON trcstat_ptracer20_del2       =   0.0000000000000000E+00
(PID.TID 0000.0001) %MON trcstat_ptracer21_max        =   2.9950054408542853E-01
(PID.TID 0000.0001) %MON trcstat_ptracer21_min        =   4.0110210072415575E-14
(PID.TID 0000.0001) %MON trcstat_ptracer21_mean       =   4.5442616498995681E-03
(PID.TID 0000.0001) %MON trcstat_ptracer21_sd         =   2.5881208555354151E-02
(PID.TID 0000.0001) %MON trcstat_ptracer21_del2       =   0.0000000000000000E+00
(PID.TID 0000.0001) %MON trcstat_ptracer22_max        =   2.9795172271640502E-01
(PID.TID 0000.0001) %MON trcstat_ptracer22_min        =   3.9965049207395906E-14
(PID.TID 0000.0001) %MON trcstat_ptracer22_mean       =   4.5361581848947100E-03
(PID.TID 0000.0001) %MON trcstat_ptracer22_sd         =   2.5802610780276344E-02
(PID.TID 0000.0001) %MON trcstat_ptracer22_del2       =   0.0000000000000000E+00
(PID.TID 0000.0001) %MON trcstat_ptracer23_max        =   2.9798374342308559E-01
(PID.TID 0000.0001) %MON trcstat_ptracer23_min        =   3.9965049207395906E-14
(PID.TID 0000.0001) %MON trcstat_ptracer23_mean       =   4.5370723349518706E-03
(PID.TID 0000.0001) %MON trcstat_ptracer23_sd         =   2.5806775912358016E-02
(PID.TID 0000.0001) %MON trcstat_ptracer23_del2       =   0.0000000000000000E+00
(PID.TID 0000.0001) %MON trcstat_ptracer24_max        =   2.9441400931337333E-02
(PID.TID 0000.0001) %MON trcstat_ptracer24_min        =   3.9965090232196460E-15
(PID.TID 0000.0001) %MON trcstat_ptracer24_mean       =   4.5000810382602336E-04
(PID.TID 0000.0001) %MON trcstat_ptracer24_sd         =   2.5539829307456279E-03
(PID.TID 0000.0001) %MON trcstat_ptracer24_del2       =   0.0000000000000000E+00
(PID.TID 0000.0001) %MON trcstat_ptracer25_max        =   2.9928628724815393E-01
(PID.TID 0000.0001) %MON trcstat_ptracer25_min        =   4.0110210072415575E-14
(PID.TID 0000.0001) %MON trcstat_ptracer25_mean       =   4.5433780787716271E-03
(PID.TID 0000.0001) %MON trcstat_ptracer25_sd         =   2.5870783854943537E-02
(PID.TID 0000.0001) %MON trcstat_ptracer25_del2       =   0.0000000000000000E+00
(PID.TID 0000.0001) %MON trcstat_ptracer26_max        =   4.5842844882743883E-01
(PID.TID 0000.0001) %MON trcstat_ptracer26_min        =   1.4288081058580838E-09
(PID.TID 0000.0001) %MON trcstat_ptracer26_mean       =   1.5973861063302192E-02
(PID.TID 0000.0001) %MON trcstat_ptracer26_sd         =   5.9082026309677224E-02
(PID.TID 0000.0001) %MON trcstat_ptracer26_del2       =   0.0000000000000000E+00
(PID.TID 0000.0001) %MON trcstat_ptracer27_max        =   4.5864999050677907E-01
(PID.TID 0000.0001) %MON trcstat_ptracer27_min        =   1.4288081058580838E-09
(PID.TID 0000.0001) %MON trcstat_ptracer27_mean       =   1.5976438165413911E-02
(PID.TID 0000.0001) %MON trcstat_ptracer27_sd         =   5.9096872671133865E-02
(PID.TID 0000.0001) %MON trcstat_ptracer27_del2       =   0.0000000000000000E+00
(PID.TID 0000.0001) %MON trcstat_ptracer28_max        =   1.3079954268873276E-01
(PID.TID 0000.0001) %MON trcstat_ptracer28_min        =   2.0055105036207787E-14
(PID.TID 0000.0001) %MON trcstat_ptracer28_mean       =   1.8057304471012640E-03
(PID.TID 0000.0001) %MON trcstat_ptracer28_sd         =   1.0622205387717552E-02
(PID.TID 0000.0001) %MON trcstat_ptracer28_del2       =   0.0000000000000000E+00
(PID.TID 0000.0001) %MON trcstat_ptracer29_max        =   1.2987053598874645E-01
(PID.TID 0000.0001) %MON trcstat_ptracer29_min        =   2.0055105036207787E-14
(PID.TID 0000.0001) %MON trcstat_ptracer29_mean       =   1.7902549028238890E-03
(PID.TID 0000.0001) %MON trcstat_ptracer29_sd         =   1.0537062585508867E-02
(PID.TID 0000.0001) %MON trcstat_ptracer29_del2       =   0.0000000000000000E+00
(PID.TID 0000.0001) %MON trcstat_ptracer30_max        =   5.0823683084149231E-02
(PID.TID 0000.0001) %MON trcstat_ptracer30_min        =   7.9930098414791790E-15
(PID.TID 0000.0001) %MON trcstat_ptracer30_mean       =   6.9841849475691417E-04
(PID.TID 0000.0001) %MON trcstat_ptracer30_sd         =   4.1149083838849278E-03
(PID.TID 0000.0001) %MON trcstat_ptracer30_del2       =   0.0000000000000000E+00
(PID.TID 0000.0001) %MON trcstat_ptracer31_max        =   5.0840979348634886E-02
(PID.TID 0000.0001) %MON trcstat_ptracer31_min        =   7.9930098414791790E-15
(PID.TID 0000.0001) %MON trcstat_ptracer31_mean       =   6.9821748924829661E-04
(PID.TID 0000.0001) %MON trcstat_ptracer31_sd         =   4.1137126627416422E-03
(PID.TID 0000.0001) %MON trcstat_ptracer31_del2       =   0.0000000000000000E+00
(PID.TID 0000.0001) %MON trcstat_ptracer32_max        =   9.0858873584191303E-03
(PID.TID 0000.0001) %MON trcstat_ptracer32_min        =   1.9982545116098230E-15
(PID.TID 0000.0001) %MON trcstat_ptracer32_mean       =   1.2724117750703587E-04
(PID.TID 0000.0001) %MON trcstat_ptracer32_sd         =   7.4042232746931048E-04
(PID.TID 0000.0001) %MON trcstat_ptracer32_del2       =   0.0000000000000000E+00
(PID.TID 0000.0001) %MON trcstat_ptracer33_max        =   1.2664416574654164E-01
(PID.TID 0000.0001) %MON trcstat_ptracer33_min        =   2.0055105036207787E-14
(PID.TID 0000.0001) %MON trcstat_ptracer33_mean       =   1.7361731969207923E-03
(PID.TID 0000.0001) %MON trcstat_ptracer33_sd         =   1.0242315089004226E-02
(PID.TID 0000.0001) %MON trcstat_ptracer33_del2       =   0.0000000000000000E+00
(PID.TID 0000.0001) // =======================================================
(PID.TID 0000.0001) // End MONITOR ptracers field statistics
(PID.TID 0000.0001) // =======================================================
 Computing Diagnostic #    156  TRAC01       Counter:       1   Parms: SMR     MR      
 Computing Diagnostic #    169  TRAC02       Counter:       1   Parms: SMR     MR      
 Computing Diagnostic #    182  TRAC03       Counter:       1   Parms: SMR     MR      
 Computing Diagnostic #    195  TRAC04       Counter:       1   Parms: SMR     MR      
 Computing Diagnostic #    208  TRAC05       Counter:       1   Parms: SMR     MR      
 Computing Diagnostic #    221  TRAC06       Counter:       1   Parms: SMR     MR      
 Computing Diagnostic #    234  TRAC07       Counter:       1   Parms: SMR     MR      
 Computing Diagnostic #    247  TRAC08       Counter:       1   Parms: SMR     MR      
 Computing Diagnostic #    260  TRAC09       Counter:       1   Parms: SMR     MR      
 Computing Diagnostic #    273  TRAC10       Counter:       1   Parms: SMR     MR      
 Computing Diagnostic #    286  TRAC11       Counter:       1   Parms: SMR     MR      
 Computing Diagnostic #    299  TRAC12       Counter:       1   Parms: SMR     MR      
 Computing Diagnostic #    312  TRAC13       Counter:       1   Parms: SMR     MR      
 Computing Diagnostic #    325  TRAC14       Counter:       1   Parms: SMR     MR      
 Computing Diagnostic #    338  TRAC15       Counter:       1   Parms: SMR     MR      
 Computing Diagnostic #    351  TRAC16       Counter:       1   Parms: SMR     MR      
 Computing Diagnostic #    364  TRAC17       Counter:       1   Parms: SMR     MR      
 Computing Diagnostic #    377  TRAC18       Counter:       1   Parms: SMR     MR      
 Computing Diagnostic #    390  TRAC19       Counter:       1   Parms: SMR     MR      
 Computing Diagnostic #    403  TRAC20       Counter:       1   Parms: SMR     MR      
 Computing Diagnostic #    416  TRAC21       Counter:       1   Parms: SMR     MR      
 Computing Diagnostic #    429  TRAC22       Counter:       1   Parms: SMR     MR      
 Computing Diagnostic #    442  TRAC23       Counter:       1   Parms: SMR     MR      
 Computing Diagnostic #    455  TRAC24       Counter:       1   Parms: SMR     MR      
 Computing Diagnostic #    468  TRAC25       Counter:       1   Parms: SMR     MR      
 Computing Diagnostic #    481  TRAC26       Counter:       1   Parms: SMR     MR      
 Computing Diagnostic #    494  TRAC27       Counter:       1   Parms: SMR     MR      
 Computing Diagnostic #    507  TRAC28       Counter:       1   Parms: SMR     MR      
 Computing Diagnostic #    520  TRAC29       Counter:       1   Parms: SMR     MR      
 Computing Diagnostic #    533  TRAC30       Counter:       1   Parms: SMR     MR      
 Computing Diagnostic #    589  PARF         Counter:       1   Parms: SM P    MR      
 Computing Diagnostic #    586  atten        Counter:       1   Parms: SM P    MR      
 Computing Diagnostic #    588  surfPAR      Counter:       1   Parms: SM P    MR      
 Computing Diagnostic #    587  exfPAR       Counter:       1   Parms: SM P    MR      
(PID.TID 0000.0001) // =======================================================
(PID.TID 0000.0001) // Begin MONITOR EXF statistics
(PID.TID 0000.0001) // =======================================================
(PID.TID 0000.0001) %MON exf_tsnumber                 =                     2
(PID.TID 0000.0001) %MON exf_time_sec                 =   7.2000000000000000E+03
(PID.TID 0000.0001) %MON exf_ustress_max              =   0.0000000000000000E+00
(PID.TID 0000.0001) %MON exf_ustress_min              =   0.0000000000000000E+00
(PID.TID 0000.0001) %MON exf_ustress_mean             =   0.0000000000000000E+00
(PID.TID 0000.0001) %MON exf_ustress_sd               =   0.0000000000000000E+00
(PID.TID 0000.0001) %MON exf_ustress_del2             =   0.0000000000000000E+00
(PID.TID 0000.0001) %MON exf_vstress_max              =   0.0000000000000000E+00
(PID.TID 0000.0001) %MON exf_vstress_min              =   0.0000000000000000E+00
(PID.TID 0000.0001) %MON exf_vstress_mean             =   0.0000000000000000E+00
(PID.TID 0000.0001) %MON exf_vstress_sd               =   0.0000000000000000E+00
(PID.TID 0000.0001) %MON exf_vstress_del2             =   0.0000000000000000E+00
(PID.TID 0000.0001) %MON exf_hflux_max                =   0.0000000000000000E+00
(PID.TID 0000.0001) %MON exf_hflux_min                =   0.0000000000000000E+00
(PID.TID 0000.0001) %MON exf_hflux_mean               =   0.0000000000000000E+00
(PID.TID 0000.0001) %MON exf_hflux_sd                 =   0.0000000000000000E+00
(PID.TID 0000.0001) %MON exf_hflux_del2               =   0.0000000000000000E+00
(PID.TID 0000.0001) %MON exf_sflux_max                =   0.0000000000000000E+00
(PID.TID 0000.0001) %MON exf_sflux_min                =   0.0000000000000000E+00
(PID.TID 0000.0001) %MON exf_sflux_mean               =   0.0000000000000000E+00
(PID.TID 0000.0001) %MON exf_sflux_sd                 =   0.0000000000000000E+00
(PID.TID 0000.0001) %MON exf_sflux_del2               =   0.0000000000000000E+00
(PID.TID 0000.0001) %MON exf_uwind_max                =   0.0000000000000000E+00
(PID.TID 0000.0001) %MON exf_uwind_min                =   0.0000000000000000E+00
(PID.TID 0000.0001) %MON exf_uwind_mean               =   0.0000000000000000E+00
(PID.TID 0000.0001) %MON exf_uwind_sd                 =   0.0000000000000000E+00
(PID.TID 0000.0001) %MON exf_uwind_del2               =   0.0000000000000000E+00
(PID.TID 0000.0001) %MON exf_vwind_max                =   0.0000000000000000E+00
(PID.TID 0000.0001) %MON exf_vwind_min                =   0.0000000000000000E+00
(PID.TID 0000.0001) %MON exf_vwind_mean               =   0.0000000000000000E+00
(PID.TID 0000.0001) %MON exf_vwind_sd                 =   0.0000000000000000E+00
(PID.TID 0000.0001) %MON exf_vwind_del2               =   0.0000000000000000E+00
(PID.TID 0000.0001) %MON exf_wspeed_max               =   0.0000000000000000E+00
(PID.TID 0000.0001) %MON exf_wspeed_min               =   0.0000000000000000E+00
(PID.TID 0000.0001) %MON exf_wspeed_mean              =   0.0000000000000000E+00
(PID.TID 0000.0001) %MON exf_wspeed_sd                =   0.0000000000000000E+00
(PID.TID 0000.0001) %MON exf_wspeed_del2              =   0.0000000000000000E+00
(PID.TID 0000.0001) %MON exf_evap_max                 =   0.0000000000000000E+00
(PID.TID 0000.0001) %MON exf_evap_min                 =   0.0000000000000000E+00
(PID.TID 0000.0001) %MON exf_evap_mean                =   0.0000000000000000E+00
(PID.TID 0000.0001) %MON exf_evap_sd                  =   0.0000000000000000E+00
(PID.TID 0000.0001) %MON exf_evap_del2                =   0.0000000000000000E+00
(PID.TID 0000.0001) // =======================================================
(PID.TID 0000.0001) // End MONITOR EXF statistics
(PID.TID 0000.0001) // =======================================================
 EXTERNAL_FIELDS_LOAD,         2 : iP,iLd,i0,i1=   12    1   12    1 ; Wght=  0.4972222222  0.5027777778
 mean surface dic   2073.6168275810896        35.000000000000000     
 limit           3           1           1  0.97190218006475770        8.3303305964260069E-002  0.77373407393704730       0.74721042859707887       0.74849880216066322        2.9335138297924036E-003  0.24856768400954438     
 chl2c           3           1           1  0.24623551638159150        1.1488738608568576E-006   1.0000000000000000     
 limit           3           1           2  0.97190218006475770        8.3303305964260069E-002   1.0000000000000000       0.74721042859707887       0.74849880216066322        2.9335138297924036E-003  0.24856768400954438     
 chl2c           3           1           2  0.24030195570934201        1.0914301678140149E-006   1.0000000000000000     
 limit           3           1           3  0.99018523922907331       0.20951571783105480        1.0000000000000000       0.97983951971275096       0.80349551369689476        2.2920313427479432E-003  0.19421245496035730     
 chl2c           3           1           3   8.9484250425239636E-002   1.5686001750368358E-006   1.0000000000000000     
 limit           3           1           4  0.99099577143087292       0.22429056502176276        1.0000000000000000       0.89802132379665345       0.89252171445456341       0.10747828554543661        0.0000000000000000     
 chl2c           3           1           4   8.9545062438470768E-002   1.6792162108946636E-006   1.0000000000000000     
 limit           3           1           5  0.97190218006475770        2.2213681309076971E-002   1.0000000000000000        1.0000000000000000        0.0000000000000000        0.0000000000000000        0.0000000000000000     
 chl2c           3           1           5   9.9227651916785661E-002   7.2760263348175856E-008   1.0000000000000000     
 limit           3           1           6  0.97739471219051510       0.10200479822620995        1.0000000000000000       0.80265467051269757       0.76414971407781196        2.7509613530954636E-003  0.23309932456909271     
 chl2c           3           1           6  0.21945451352430154        1.1137124427133759E-006   1.0000000000000000     
 consum   6.8033949837555990E-007   9.1490582682476959E-008
 reminPOC   5.4951779874423571E-008  0.45280107629624489        3.8580246913580245E-007  0.31456421128583595     
 reminPOSi   2.8443085346522734E-009  0.45280107629624489        7.7160493827160495E-008   8.1409344055923483E-002
 reminDOC   2.1135275939313807E-006   1.9881793125937302E-010
 limit           3           2           1  0.97188978415012195        8.2719610262300194E-002  0.77382276998226207       0.74724318014576607       0.74830467171454473        2.9361862636989523E-003  0.24875914202175628     
 chl2c           3           2           1  0.24833278006359755        1.1406657789680126E-006   1.0000000000000000     
 limit           3           2           2  0.97188978415012195        8.2719610262300194E-002   1.0000000000000000       0.74724318014576607       0.74830467171454473        2.9361862636989523E-003  0.24875914202175628     
 chl2c           3           2           2  0.24240571235904154        1.0836324900261570E-006   1.0000000000000000     
 limit           3           2           3  0.99018082776073912       0.20824856903432368        1.0000000000000000       0.97991264793955357       0.80335196306862577        2.2940245603860561E-003  0.19435401237098823     
 chl2c           3           2           3   9.0352834719592143E-002   1.5588750146675950E-006   1.0000000000000000     
 limit           3           2           4  0.99099172096038857       0.22295926192393423        1.0000000000000000       0.89804916869060447       0.89240738879081694       0.10759261120918295        0.0000000000000000     
 chl2c           3           2           4   9.0416110541768874E-002   1.6689684236765554E-006   1.0000000000000000     
 limit           3           2           5  0.97188978415012195        2.2047737772345401E-002   1.0000000000000000        1.0000000000000000        0.0000000000000000        0.0000000000000000        0.0000000000000000     
 chl2c           3           2           5  0.10072137788235831        7.2206714061139329E-008   1.0000000000000000     
 limit           3           2           6  0.97738468303179959       0.10130454471374506        1.0000000000000000       0.80269251356481019       0.76396919102579375        2.7534496720329634E-003  0.23327735930217322     
 chl2c           3           2           6  0.22156935684554130        1.1059136570098234E-006   1.0000000000000000     
 consum   6.7628090183743813E-007   9.0928859936658044E-008
 reminPOC   5.5735971151720844E-008  0.45273833782313028        3.8580246913580245E-007  0.31909742373463212     
 reminPOSi   2.8855229705494551E-009  0.45273833782313028        7.7160493827160495E-008   8.2600421864274395E-002
 reminDOC   2.1137282248243927E-006   2.0269486630941873E-010
 limit           3           3           1  0.97186092147671577        8.1971812193792140E-002  0.77410021001211426       0.74734415872912396       0.74770931892044212        2.9441574519285616E-003  0.24934652362762938     
 chl2c           3           3           1  0.25365905894775304        1.1299406067646654E-006   1.0000000000000000     
 limit           3           3           2  0.97186092147671577        8.1971812193792140E-002   1.0000000000000000       0.74734415872912396       0.74770931892044212        2.9441574519285616E-003  0.24934652362762938     
 chl2c           3           3           2  0.24775626041805038        1.0734435982069580E-006   1.0000000000000000     
 limit           3           3           3  0.99017055580495894       0.20662158890946097        1.0000000000000000       0.98013698715643227       0.80291190876464524        2.2999595942823029E-003  0.19478813164107245     
 chl2c           3           3           3   9.2553785636096814E-002   1.5452416714775806E-006   1.0000000000000000     
 limit           3           3           4  0.99098228956442136       0.22124946820434341        1.0000000000000000       0.89813360556853927       0.89205787713834905       0.10794212286165103        0.0000000000000000     
 chl2c           3           3           4   9.2621276030108460E-002   1.6540264295384944E-006   1.0000000000000000     
 limit           3           3           5  0.97186092147671577        2.1835366467916013E-002   1.0000000000000000        1.0000000000000000        0.0000000000000000        0.0000000000000000        0.0000000000000000     
 chl2c           3           3           5  0.10464414238448484        7.1485046240625281E-008   1.0000000000000000     
 limit           3           3           6  0.97736133092401412       0.10040712670886581        1.0000000000000000       0.80280898318806737       0.76341562036850086        2.7608695704552195E-003  0.23382351006104388     
 chl2c           3           3           6  0.22696878507740378        1.0957157803282026E-006   1.0000000000000000     
 consum   6.7115992198274331E-007   9.0243837662328719E-008
 reminPOC   5.7040213532684097E-008  0.45257279317131582        3.8580246913580245E-007  0.32668387430163320     
 reminPOSi   2.9548774311203404E-009  0.45257279317131582        7.7160493827160495E-008   8.4616689480985732E-002
 reminDOC   2.1144591429742798E-006   2.0902557033171296E-010
 limit           3           4           1  0.97163877108151442        7.7017322969026192E-002  0.77762726173261287       0.74880331510830633       0.73925166648414220        3.0615065670601201E-003  0.25768682694879774     
 chl2c           3           4           1  0.30607518649107945        1.0577310310303922E-006   1.0000000000000000     
 limit           3           4           2  0.97163877108151442        7.7017322969026192E-002   1.0000000000000000       0.74880331510830633       0.73925166648414220        3.0615065670601201E-003  0.25768682694879774     
 chl2c           3           4           2  0.30054543905859293        1.0048448397061822E-006   1.0000000000000000     
 limit           3           4           3  0.99009148126608260       0.19573947540279685        1.0000000000000000       0.98333667324012231       0.79665655064533092        2.3875025284873621E-003  0.20095594682618179     
 chl2c           3           4           3  0.11418992091033896        1.4564866496605448E-006   1.0000000000000000     
 limit           3           4           4  0.99090968519769951       0.20980067551536657        1.0000000000000000       0.89932541804064214       0.88709024450060059       0.11290975549939944        0.0000000000000000     
 chl2c           3           4           4  0.11426950508209634        1.5595547257136854E-006   1.0000000000000000     
 limit           3           4           5  0.97163877108151442        2.0434700169291713E-002   1.0000000000000000        1.0000000000000000        0.0000000000000000        0.0000000000000000        0.0000000000000000     
 chl2c           3           4           5  0.14568533411949816        6.6652912086354287E-008   1.0000000000000000     
 limit           3           4           6  0.97718158520811760        9.4453023948570691E-002   1.0000000000000000       0.80448423739521080       0.75554795636899430        2.8701680536802978E-003  0.24158187557732536     
 chl2c           3           4           6  0.28061445189585532        1.0269388076272604E-006   1.0000000000000000     
 consum   6.4258383652058477E-007   8.6222585793220091E-008
 reminPOC   6.9306677009703682E-008  0.45090451489296240        3.8580246913580245E-007  0.39840565103189607     
 reminPOSi   3.6145582510621936E-009  0.45090451489296240        7.7160493827160495E-008  0.10389045437898578     
 reminDOC   2.1275418171927889E-006   2.6825279171018930E-010
 limit           3           5           1  0.97174244138409549        7.0754698688362344E-002  0.78453027258626207       0.75341063889531923       0.71408104801158034        3.4627523746337502E-003  0.28245619961378599     
 chl2c           3           5           1  0.36971152753016012        9.6267762901222456E-007   1.0000000000000000     
 limit           3           5           2  0.97174244138409549        7.0754698688362344E-002   1.0000000000000000       0.75341063889531923       0.71408104801158034        3.4627523746337502E-003  0.28245619961378599     
 chl2c           3           5           2  0.36521808592759752        9.1454664782199667E-007   1.0000000000000000     
 limit           3           5           3  0.99012838568706496       0.18172373848272635        1.0000000000000000       0.99298568344773963       0.77799900088559049        2.6886447418344693E-003  0.21931235437257510     
 chl2c           3           5           3  0.14144649731960313        1.3357793211413434E-006   1.0000000000000000     
 limit           3           5           4  0.99094357008120881       0.19502224458360826        1.0000000000000000       0.90289480302982517       0.87215941895400928       0.12784058104599069        0.0000000000000000     
 chl2c           3           5           4  0.14154923608983438        1.4305282858451959E-006   1.0000000000000000     
 limit           3           5           5  0.97174244138409549        1.8679945086683150E-002   1.0000000000000000        1.0000000000000000        0.0000000000000000        0.0000000000000000        0.0000000000000000     
 chl2c           3           5           5  0.21133120502799324        6.0362679054945740E-008   1.0000000000000000     
 limit           3           5           6  0.97726546863675590        8.6906119289330064E-002   1.0000000000000000       0.80968912612325850       0.73209395262205612        3.2445988462293002E-003  0.26466144853171464     
 chl2c           3           5           6  0.34862590015137490        9.3608813812309473E-007   1.0000000000000000     
 consum   6.1693791339513787E-007   8.2589558111053178E-008
 reminPOC   9.6438991755278065E-008  0.44671098945063181        3.8580246913580245E-007  0.55957850272968523     
 reminPOSi   5.0875640035141542E-009  0.44671098945063181        7.7160493827160495E-008  0.14760064346442547     
 reminDOC   2.1653256097437892E-006   4.0652173970752254E-010
 limit           3           6           1  0.97203549374036979       0.30548063600862491       0.78964973241009684       0.81786490057015393       0.46733377636517542        7.3072993896949835E-003  0.52535892424512953     
 chl2c           3           6           1  0.40814125832203546        3.4667887081077317E-006   1.0000000000000000     
 limit           3           6           2  0.97203549374036979       0.30548063600862491        1.0000000000000000       0.81786490057015393       0.46733377636517542        7.3072993896949835E-003  0.52535892424512953     
 chl2c           3           6           2  0.40438410291308280        3.3408803336452275E-006   1.0000000000000000     
 limit           3           6           3  0.99023267838212603       0.56195687804110483        1.0000000000000000        1.0000000000000000       0.59091158927722698        5.6120162333686474E-003  0.40347639448940442     
 chl2c           3           6           3  0.15841777453052708        2.8644068717446005E-006   1.0000000000000000     
 limit           3           6           4  0.99103932837013886       0.58324750798030822        1.0000000000000000       0.91445852012216733       0.72516758108294666       0.27483241891705334        0.0000000000000000     
 chl2c           3           6           4  0.15849949313762191        2.9159566920079800E-006   1.0000000000000000     
 limit           3           6           5  0.97203549374036979        9.9067579366748065E-002   1.0000000000000000        1.0000000000000000        0.0000000000000000        0.0000000000000000        0.0000000000000000     
 chl2c           3           6           5  0.26026701381174078        3.1779491454595268E-007   1.0000000000000000     
 limit           3           6           6  0.97750256908275357       0.35475787935701786        1.0000000000000000       0.87468418287063077       0.49857867915587151        6.8786710123679142E-003  0.49454264983176055     
 chl2c           3           6           6  0.39099060489618620        3.2321916076674034E-006   1.0000000000000000     
 consum   3.2625154879127352E-006   5.3210966953018300E-007
 reminPOC   1.3927652789970528E-007  0.44345466447482562        3.8580246913580245E-007  0.81407365675940457     
 reminPOSi   7.5454471633310232E-009  0.44345466447482562        7.7160493827160495E-008  0.22051633023767964     
 reminDOC   2.0346276771229988E-006   6.8771423509286296E-010
 limit           3           7           1  0.97232468425064233       0.44727642156923242       0.79454950768135746       0.94658638627647917        7.9689401301018009E-002   1.3985355822987449E-002  0.90632524287599447     
 chl2c           3           7           1  0.43648224486014520        3.2159240244994135E-006   1.0000000000000000     
 limit           3           7           2  0.97232468425064233       0.44727642156923242        1.0000000000000000       0.94658638627647917        7.9689401301018009E-002   1.3985355822987449E-002  0.90632524287599447     
 chl2c           3           7           2  0.43362157003567570        3.1463808228135707E-006   1.0000000000000000     
 limit           3           7           3  0.99033555659962347       0.70240155734871512        1.0000000000000000        1.0000000000000000       0.17760809339128303        1.2497349760099741E-002  0.80989455684861711     
 chl2c           3           7           3  0.17057601813805770        2.2701441812584168E-006   1.0000000000000000     
 limit           3           7           4  0.99113378629794668       0.72026401135513640        1.0000000000000000       0.73855513615895307       0.27905101069823546       0.72094898930176465        0.0000000000000000     
 chl2c           3           7           4  0.17061564503540377        2.2855186140618041E-006   1.0000000000000000     
 limit           3           7           5  0.97232468425064233       0.16826474523655766        1.0000000000000000        1.0000000000000000        0.0000000000000000        0.0000000000000000        0.0000000000000000     
 chl2c           3           7           5  0.30860870873174384        5.3475523164616657E-007   1.0000000000000000     
 limit           3           7           6  0.97773651761960223       0.50286555092454743        1.0000000000000000       0.96936694173459137        9.5470428164763962E-002   1.3745541920753125E-002  0.89078402991448291     
 chl2c           3           7           6  0.42315167699835493        3.0263930469922872E-006   1.0000000000000000     
 consum   4.1839960808241447E-006   7.2443450066374264E-007
 reminPOC   1.8323652136145156E-007  0.44034452980006666        3.8580246913580245E-007   1.0785851332921692     
 reminPOSi   1.0074004734573181E-008  0.44034452980006666        7.7160493827160495E-008  0.29649306968647315     
 reminDOC   1.9056946310456222E-006   9.8863692498928063E-010
 limit           3           8           1  0.97237087797937227       0.76966142690344463       0.80270251437148199       0.95318686612777459        5.6362346309928979E-002   1.1252778244969976E-002  0.93238487544510107     
 chl2c           3           8           1  0.45735805887992120        2.4008871715674828E-006   1.0000000000000000     
 limit           3           8           2  0.97237087797937227       0.76966142690344463        1.0000000000000000       0.95318686612777459        5.6362346309928979E-002   1.1252778244969976E-002  0.93238487544510107     
 chl2c           3           8           2  0.45531842832555725        2.3756307815225477E-006   1.0000000000000000     
 limit           3           8           3  0.99035198612114306       0.90694084329598901        1.0000000000000000        1.0000000000000000       0.13389381194934941        1.0328223797151755E-002  0.85577796425349895     
 chl2c           3           8           3  0.17967037528670843        1.5672484813592021E-006   1.0000000000000000     
 limit           3           8           4  0.99114887095972926       0.91402907453592741        1.0000000000000000       0.64749694662312707       0.23630218100559996       0.76369781899440004        0.0000000000000000     
 chl2c           3           8           4  0.17930102070740997        1.4857071948188713E-006   1.0000000000000000     
 limit           3           8           5  0.97237087797937227       0.45514741118240554        1.0000000000000000        1.0000000000000000        0.0000000000000000        0.0000000000000000        0.0000000000000000     
 chl2c           3           8           5  0.35697014640081109        1.1128976507514719E-006   1.0000000000000000     
 limit           3           8           6  0.97777388477357063       0.80683025273255471        1.0000000000000000       0.97157601889721779        6.8203422962650570E-002   1.1111574670447790E-002  0.92068500236690165     
 chl2c           3           8           6  0.44746775047426479        2.2962049622351589E-006   1.0000000000000000     
 consum   1.9967053927743685E-006   3.5908818785917263E-007
 reminPOC   1.9237604596441478E-007  0.43723767672469815        3.8580246913580245E-007   1.1404294224482523     
 reminPOSi   1.0797523382062303E-008  0.43723767672469815        7.7160493827160495E-008  0.32004539059802145     
 reminDOC   1.4376292857785186E-006   1.0712352258214326E-009
 limit           3           9           1  0.97241586155629911       0.85449811547934873       0.81023249432676636       0.96013624547655618        3.0449213533993266E-002   8.3855129937331976E-003  0.96116527347227354     
 chl2c           3           9           1  0.47074768356848834        1.5755825277971366E-006   1.0000000000000000     
 limit           3           9           2  0.97241586155629911       0.85449811547934873        1.0000000000000000       0.96013624547655618        3.0449213533993266E-002   8.3855129937331976E-003  0.96116527347227354     
 chl2c           3           9           2  0.46938349370143112        1.5716016478735767E-006   1.0000000000000000     
 limit           3           9           3  0.99036798425695372       0.94483943307608809        1.0000000000000000        1.0000000000000000        7.8255175352958423E-002   7.9720457266166025E-003  0.91377277892042497     
 chl2c           3           9           3  0.18597410603024889        1.0341919081596880E-006   1.0000000000000000     
 limit           3           9           4  0.99116355950771318       0.94920264608305627        1.0000000000000000       0.52229185396476585       0.16742359115870187       0.83257640884129813        0.0000000000000000     
 chl2c           3           9           4  0.18549859423093729        9.6739308359984041E-007   1.0000000000000000     
 limit           3           9           5  0.97241586155629911       0.59484493733842159        1.0000000000000000        1.0000000000000000        0.0000000000000000        0.0000000000000000        0.0000000000000000     
 chl2c           3           9           5  0.39545425905229503        9.9899482103555383E-007   1.0000000000000000     
 limit           3           9           6  0.97781027234108486       0.88010963765197880        1.0000000000000000       0.97322903118219117        3.7277025721545121E-002   8.3264601739978048E-003  0.95439651410445703     
 chl2c           3           9           6  0.46375983557418404        1.5347628869049848E-006   1.0000000000000000     
 consum   6.2116039899557944E-007   1.1271900748819339E-007
 reminPOC   1.9771799366463176E-007  0.43259486777447886        3.8580246913580245E-007   1.1846766518873617     
 reminPOSi   1.1315234820808327E-008  0.43259486777447886        7.7160493827160495E-008  0.33899025208529610     
 reminDOC   9.7256739741218192E-007   1.1302997020608312E-009
 limit           3          10           1  0.97269358861361588       0.86885507824766894       0.81876076649186202       0.96242092251343014        2.3027930900654470E-002   7.3526749606298283E-003  0.96961939413871567     
 chl2c           3          10           1  0.48007688450743186        1.0487226332311261E-006   1.0000000000000000     
 limit           3          10           2  0.97269358861361588       0.86885507824766894        1.0000000000000000       0.96242092251343014        2.3027930900654470E-002   7.3526749606298283E-003  0.96961939413871567     
 chl2c           3          10           2  0.47913275814709017        1.0471928206984008E-006   1.0000000000000000     
 limit           3          10           3  0.99046673486839987       0.95079553977085229        1.0000000000000000        1.0000000000000000        6.0648906049273157E-002   7.0695401498007612E-003  0.93228155380092603     
 chl2c           3          10           3  0.19039740865580462        6.9149458680338938E-007   1.0000000000000000     
 limit           3          10           4  0.99125422564722609       0.95471020646956839        1.0000000000000000       0.47611056318593958       0.14127954140352006       0.85872045859647994        0.0000000000000000     
 chl2c           3          10           4  0.18999735807064463        6.5482798137072147E-007   1.0000000000000000     
 limit           3          10           5  0.97269358861361588       0.62353480759282243        1.0000000000000000        1.0000000000000000        0.0000000000000000        0.0000000000000000        0.0000000000000000     
 chl2c           3          10           5  0.42496590391779154        7.6679160159971048E-007   1.0000000000000000     
 limit           3          10           6  0.97803491335246562       0.89225810204272427        1.0000000000000000       0.97384413227723809        2.8290518458338045E-002   7.3130688173352982E-003  0.96439641272432675     
 chl2c           3          10           6  0.47519877279691647        1.0303325611436809E-006   1.0000000000000000     
 consum   2.5614265399607745E-007   4.6483588342503379E-008
 reminPOC   1.9947904964895316E-007  0.42797974116627380        3.8580246913580245E-007   1.2081172236823434     
 reminPOSi   1.1615361901820697E-008  0.42797974116627380        7.7160493827160495E-008  0.35173414946552822     
 reminDOC   8.2586181280188426E-007   1.1686439668042219E-009
 limit           3          11           1  0.97304134619693883       0.87151506128264455       0.82702596323439526       0.96328326090931737        2.1551960248826524E-002   6.9863312498661713E-003  0.97146170850130731     
 chl2c           3          11           1  0.48650068143883357        6.9835865025525114E-007   1.0000000000000000     
 limit           3          11           2  0.97304134619693883       0.87151506128264455        1.0000000000000000       0.96328326090931737        2.1551960248826524E-002   6.9863312498661713E-003  0.97146170850130731     
 chl2c           3          11           2  0.48584628308878874        6.9747638835938909E-007   1.0000000000000000     
 limit           3          11           3  0.99059033429136301       0.95188557795205608        1.0000000000000000        1.0000000000000000        5.7058887749121753E-002   6.7328040853116486E-003  0.93620830816556655     
 chl2c           3          11           3  0.19346803778605245        4.6192349665355027E-007   1.0000000000000000     
 limit           3          11           4  0.99136770418225428       0.95571756112661232        1.0000000000000000       0.46425151009168375       0.13612050712285070       0.86387949287714938        0.0000000000000000     
 chl2c           3          11           4  0.19317919748305146        4.4451693711741096E-007   1.0000000000000000     
 limit           3          11           5  0.97304134619693883       0.62904618116899147        1.0000000000000000        1.0000000000000000        0.0000000000000000        0.0000000000000000        0.0000000000000000     
 chl2c           3          11           5  0.44714123034750569        5.6157990550024083E-007   1.0000000000000000     
 limit           3          11           6  0.97831616354955298       0.89450104363752003        1.0000000000000000       0.97429314058029626        2.6497989895531811E-002   6.9510155252904141E-003  0.96655099457917781     
 chl2c           3          11           6  0.48313203452614872        6.8982782097829834E-007   1.0000000000000000     
 consum   1.3385919857433605E-007   2.4256172739693092E-008
 reminPOC   1.9983430101566237E-007  0.42356710808140535        3.8580246913580245E-007   1.2228770798063200     
 reminPOSi   1.1827974856703023E-008  0.42356710808140535        7.7160493827160495E-008  0.36190381929611554     
 reminDOC   7.8454035011409990E-007   1.1958914255521186E-009
 limit           3          12           1  0.97338030766909323       0.87405750480624422       0.83457085582046198       0.96407936035498942        2.0279654263820477E-002   6.6301429141905977E-003  0.97309020282198888     
 chl2c           3          12           1  0.49087937824824468        4.6428498949535346E-007   1.0000000000000000     
 limit           3          12           2  0.97338030766909323       0.87405750480624422        1.0000000000000000       0.96407936035498942        2.0279654263820477E-002   6.6301429141905977E-003  0.97309020282198888     
 chl2c           3          12           2  0.49042977242112223        4.6381712783888982E-007   1.0000000000000000     
 limit           3          12           3  0.99071075208092918       0.95292356617851415        1.0000000000000000        1.0000000000000000        5.3936143994352856E-002   6.4023765542547519E-003  0.93966147945139245     
 chl2c           3          12           3  0.19557728208379074        3.0781715313994579E-007   1.0000000000000000     
 limit           3          12           4  0.99147825936072675       0.95667664323550039        1.0000000000000000       0.45255278743419075       0.13183718430860081       0.86816281569139919        0.0000000000000000     
 chl2c           3          12           4  0.19537056568312011        2.9960115377584778E-007   1.0000000000000000     
 limit           3          12           5  0.97338030766909323       0.63437368898001301        1.0000000000000000        1.0000000000000000        0.0000000000000000        0.0000000000000000        0.0000000000000000     
 chl2c           3          12           5  0.46332003060672949        3.9971248927128639E-007   1.0000000000000000     
 limit           3          12           6  0.97859026200762600       0.89664258571462030        1.0000000000000000       0.97472143691151836        2.4950844767324520E-002   6.5985311785025213E-003  0.96845062405417293     
 chl2c           3          12           6  0.48857316663706107        4.6036996142674214E-007   1.0000000000000000     
 consum   6.4519395870278827E-008   1.1682180634397063E-008
 reminPOC   2.0012661727159308E-007  0.41935256894752460        3.8580246913580245E-007   1.2369739221339551     
 reminPOSi   1.2033176662772079E-008  0.41935256894752460        7.7160493827160495E-008  0.37188270943689111     
 reminDOC   7.4436207837973598E-007   1.2216876240869206E-009
 limit           3          13           1  0.97364781060546601       0.87634263848568383       0.84194103358277061       0.96482774507941704        1.9255041114940523E-002   6.2924240842958130E-003  0.97445253480076366     
 chl2c           3          13           1  0.49385660789580876        3.0873624925922284E-007   1.0000000000000000     
 limit           3          13           2  0.97364781060546601       0.87634263848568383        1.0000000000000000       0.96482774507941704        1.9255041114940523E-002   6.2924240842958130E-003  0.97445253480076366     
 chl2c           3          13           2  0.49354974833154580        3.0849616878121559E-007   1.0000000000000000     
 limit           3          13           3  0.99080574532087828       0.95385328261725644        1.0000000000000000        1.0000000000000000        5.1404200840609156E-002   6.0861562415554880E-003  0.94250964291783534     
 chl2c           3          13           3  0.19701530730281983        2.0503120287330997E-007   1.0000000000000000     
 limit           3          13           4  0.99156547077665702       0.95753554279034636        1.0000000000000000       0.44169088696796444       0.12861604144005151       0.87138395855994855        0.0000000000000000     
 chl2c           3          13           4  0.19686850771650674        2.0117044260693713E-007   1.0000000000000000     
 limit           3          13           5  0.97364781060546601       0.63921260568761806        1.0000000000000000        1.0000000000000000        0.0000000000000000        0.0000000000000000        0.0000000000000000     
 chl2c           3          13           5  0.47482276675342677        2.7878299467442375E-007   1.0000000000000000     
 limit           3          13           6  0.97880654972123882       0.89856548591284602        1.0000000000000000       0.97515243570583687        2.3703874987836521E-002   6.2638805275278377E-003  0.97003224448463565     
 chl2c           3          13           6  0.49228857432665041        3.0694725965023187E-007   1.0000000000000000     
 consum   3.3483320502045446E-008   6.0572915618158858E-009
 reminPOC   1.9923234174015577E-007  0.41518625157243289        3.8580246913580245E-007   1.2438037816394107     
 reminPOSi   1.2273380700772594E-008  0.41518625157243289        7.7160493827160495E-008  0.38311243033601000     
 reminDOC   7.0405848330585377E-007   1.2380277068188793E-009
 limit           3          14           1  0.97388928868611702       0.87849554843626054       0.84882175626411904       0.96553928106404663        1.8353923853773556E-002   5.9680162118599372E-003  0.97567805993436652     
 chl2c           3          14           1  0.49586842472769149        0.0000000000000000        1.0000000000000000     
 limit           3          14           2  0.97388928868611702       0.87849554843626054        1.0000000000000000       0.96553928106404663        1.8353923853773556E-002   5.9680162118599372E-003  0.97567805993436652     
 chl2c           3          14           2  0.49565990920923342        0.0000000000000000        1.0000000000000000     
 limit           3          14           3  0.99089146766551395       0.95472642703440780        1.0000000000000000        1.0000000000000000        4.9163433771890426E-002   5.7807066925343676E-003  0.94505585953557514     
 chl2c           3          14           3  0.19799016332319053        0.0000000000000000        1.0000000000000000     
 limit           3          14           4  0.99164416958075829       0.95834205779102433        1.0000000000000000       0.43103716138209774       0.12594590228716121       0.87405409771283871        0.0000000000000000     
 chl2c           3          14           4  0.19788647214689764        0.0000000000000000        1.0000000000000000     
 limit           3          14           5  0.97388928868611702       0.64381601353770468        1.0000000000000000        1.0000000000000000        0.0000000000000000        0.0000000000000000        0.0000000000000000     
 chl2c           3          14           5  0.48284925025640324        0.0000000000000000        1.0000000000000000     
 limit           3          14           6  0.97900177523188869       0.90037547407197172        1.0000000000000000       0.97557394755711824        2.2606267418810697E-002   5.9421636607712904E-003  0.97145156892041795     
 chl2c           3          14           6  0.49480679349910983        0.0000000000000000        1.0000000000000000     
 consum   0.0000000000000000        0.0000000000000000     
 reminPOC   1.9831293143455321E-007  0.41202155086226916        3.8580246913580245E-007   1.2475733786318164     
 reminPOSi   1.2553637858198911E-008  0.41202155086226916        7.7160493827160495E-008  0.39487047777421658     
 reminDOC   6.6574791022279834E-007   1.2498967277681647E-009
 limit           3          15           1  0.97418492995521089       0.88108220082733246       0.85662423534028553       0.96639238523759274        1.7288892902181330E-002   5.5764841500442301E-003  0.97713462294777442     
 chl2c           3          15           1  0.49748753367193593        0.0000000000000000        1.0000000000000000     
 limit           3          15           2  0.97418492995521089       0.88108220082733246        1.0000000000000000       0.96639238523759274        1.7288892902181330E-002   5.5764841500442301E-003  0.97713462294777442     
 chl2c           3          15           2  0.49735947936004515        0.0000000000000000        1.0000000000000000     
 limit           3          15           3  0.99099637972680921       0.95577193777218594        1.0000000000000000        1.0000000000000000        4.6496132098079158E-002   5.4107449971374519E-003  0.94809312290478354     
 chl2c           3          15           3  0.19877655944557149        0.0000000000000000        1.0000000000000000     
 limit           3          15           4  0.99174048428764894       0.95930763090512672        1.0000000000000000       0.41745757911638171       0.12286660819579925       0.87713339180420069        0.0000000000000000     
 chl2c           3          15           4  0.19870954653060399        0.0000000000000000        1.0000000000000000     
 limit           3          15           5  0.97418492995521089       0.64940482363202723        1.0000000000000000        1.0000000000000000        0.0000000000000000        0.0000000000000000        0.0000000000000000     
 chl2c           3          15           5  0.48946356841531957        0.0000000000000000        1.0000000000000000     
 limit           3          15           6  0.97924076373652513       0.90254800531528734        1.0000000000000000       0.97608084795673511        2.1307605658935882E-002   5.5536795965699078E-003  0.97313871474449420     
 chl2c           3          15           6  0.49683819954556635        0.0000000000000000        1.0000000000000000     
 consum   0.0000000000000000        0.0000000000000000     
 reminPOC   1.9750458053868368E-007  0.40887590847937783        3.8580246913580245E-007   1.2520470444447525     
 reminPOSi   1.2928096339875907E-008  0.40887590847937783        7.7160493827160495E-008  0.40977745347704253     
 reminDOC   6.1980158199859424E-007   1.2643873449095121E-009
 limit           3          16           1  0.97457403894268646       0.88357050956897354       0.86601866845660258       0.96735510347144216        1.6249293559483329E-002   5.1731634762563500E-003  0.97857754296426025     
 chl2c           3          16           1  0.49861598640848714        0.0000000000000000        1.0000000000000000     
 limit           3          16           2  0.97457403894268646       0.88357050956897354        1.0000000000000000       0.96735510347144216        1.6249293559483329E-002   5.1731634762563500E-003  0.97857754296426025     
 chl2c           3          16           2  0.49854471325113553        0.0000000000000000        1.0000000000000000     
 limit           3          16           3  0.99113439680676563       0.95677406646531904        1.0000000000000000        1.0000000000000000        4.3875640130897745E-002   5.0278872328646182E-003  0.95109647263623764     
 chl2c           3          16           3  0.19932671286635043        0.0000000000000000        1.0000000000000000     
 limit           3          16           4  0.99186718854960487       0.96023298038096550        1.0000000000000000       0.40345480508727749       0.11985500739972724       0.88014499260027268        0.0000000000000000     
 chl2c           3          16           4  0.19928739563585088        0.0000000000000000        1.0000000000000000     
 limit           3          16           5  0.97457403894268646       0.65484181356875515        1.0000000000000000        1.0000000000000000        0.0000000000000000        0.0000000000000000        0.0000000000000000     
 chl2c           3          16           5  0.49416443707936158        0.0000000000000000        1.0000000000000000     
 limit           3          16           6  0.97955526575077956       0.90463576581692262        1.0000000000000000       0.97668000599451321        2.0038943521272518E-002   5.1532351766965367E-003  0.97480782130203092     
 chl2c           3          16           6  0.49825654407739361        0.0000000000000000        1.0000000000000000     
 consum   0.0000000000000000        0.0000000000000000     
 reminPOC   1.9653963670745800E-007  0.40541703248207117        3.8580246913580245E-007   1.2565597829643722     
 reminPOSi   1.3288152226519947E-008  0.40541703248207117        7.7160493827160495E-008  0.42478346753552926     
 reminDOC   5.7393104062784990E-007   1.2794889202461791E-009
 limit           3          17           1  0.97515799305955331       0.88363262675024867       0.87860473188459587       0.96817583818295039        1.6164584893434301E-002   5.0170086002681311E-003  0.97881840650629759     
 chl2c           3          17           1  0.49924207578561552        0.0000000000000000        1.0000000000000000     
 limit           3          17           2  0.97515799305955331       0.88363262675024867        1.0000000000000000       0.96817583818295039        1.6164584893434301E-002   5.0170086002681311E-003  0.97881840650629759     
 chl2c           3          17           2  0.49920245999721458        0.0000000000000000        1.0000000000000000     
 limit           3          17           3  0.99134139087053130       0.95679903782048781        1.0000000000000000        1.0000000000000000        4.3681543856261322E-002   4.8766875489520689E-003  0.95144176859478669     
 chl2c           3          17           3  0.19963008172415592        0.0000000000000000        1.0000000000000000     
 limit           3          17           4  0.99205721050551787       0.96025603654694724        1.0000000000000000       0.40309708726425963       0.11945455679185285       0.88054544320814709        0.0000000000000000     
 chl2c           3          17           4  0.19960836928872180        0.0000000000000000        1.0000000000000000     
 limit           3          17           5  0.97515799305955331       0.65497831025162245        1.0000000000000000        1.0000000000000000        0.0000000000000000        0.0000000000000000        0.0000000000000000     
 chl2c           3          17           5  0.49678158462197319        0.0000000000000000        1.0000000000000000     
 limit           3          17           6  0.98002716136846157       0.90468785664806506        1.0000000000000000       0.97733153302503051        1.9938432812558009E-002   4.9977640933357428E-003  0.97506380309410623     
 chl2c           3          17           6  0.49904428611395513        0.0000000000000000        1.0000000000000000     
 consum   0.0000000000000000        0.0000000000000000     
 reminPOC   1.9528939822982684E-007  0.40258139332918674        3.8580246913580245E-007   1.2573609426549046     
 reminPOSi   1.3269576150229750E-008  0.40258139332918674        7.7160493827160495E-008  0.42717748449530651     
 reminDOC   5.6918003642842904E-007   1.2858302288460482E-009
 limit           3          18           1  0.97571582012058178       0.88369355318793108       0.88903089763380694       0.96894882632838253        1.6093304542919278E-002   4.8698632077138699E-003  0.97903683224936677     
 chl2c           3          18           1  0.49958387100740281        0.0000000000000000        1.0000000000000000     
 limit           3          18           2  0.97571582012058178       0.88369355318793108        1.0000000000000000       0.96894882632838253        1.6093304542919278E-002   4.8698632077138699E-003  0.97903683224936677     
 chl2c           3          18           2  0.49956198890432840        0.0000000000000000        1.0000000000000000     
 limit           3          18           3  0.99153897291607296       0.95682352834767415        1.0000000000000000        1.0000000000000000        4.3520210075638957E-002   4.7341132643788607E-003  0.95174567665998211     
 chl2c           3          18           3  0.19979681500955071        0.0000000000000000        1.0000000000000000     
 limit           3          18           4  0.99223858604526027       0.96027864866872248        1.0000000000000000       0.40277629803448356       0.11913176813243474       0.88086823186756524        0.0000000000000000     
 chl2c           3          18           4  0.19978485028672313        0.0000000000000000        1.0000000000000000     
 limit           3          18           5  0.97571582012058178       0.65511222702327510        1.0000000000000000        1.0000000000000000        0.0000000000000000        0.0000000000000000        0.0000000000000000     
 chl2c           3          18           5  0.49822851825839715        0.0000000000000000        1.0000000000000000     
 limit           3          18           6  0.98047784016826767       0.90473894764658380        1.0000000000000000       0.97794643683649118        1.9854147969999358E-002   4.8512488481205537E-003  0.97529460318188010     
 chl2c           3          18           6  0.49947504395528769        0.0000000000000000        1.0000000000000000     
 consum   0.0000000000000000        0.0000000000000000     
 reminPOC   1.9401398575537560E-007  0.39976632927711631        3.8580246913580245E-007   1.2579454902749860     
 reminPOSi   1.3228194968987146E-008  0.39976632927711631        7.7160493827160495E-008  0.42884403773593882     
 reminDOC   5.6448730504197584E-007   1.2913351502671489E-009
 limit           3          19           1  0.97624915474193630       0.88375492834035096       0.89780771788512259       0.96967892167059866        1.6030207496127089E-002   4.7308610544802999E-003  0.97923893144939256     
 chl2c           3          19           1  0.49977153684789599        0.0000000000000000        1.0000000000000000     
 limit           3          19           2  0.97624915474193630       0.88375492834035096        1.0000000000000000       0.96967892167059866        1.6030207496127089E-002   4.7308610544802999E-003  0.97923893144939256     
 chl2c           3          19           2  0.49975951826024545        0.0000000000000000        1.0000000000000000     
 limit           3          19           3  0.99172774214948456       0.95684819709740387        1.0000000000000000        1.0000000000000000        4.3378436094744288E-002   4.5993725976477048E-003  0.95202219130760790     
 chl2c           3          19           3  0.19988843795452069        0.0000000000000000        1.0000000000000000     
 limit           3          19           4  0.99241186605364351       0.96030142524985929        1.0000000000000000       0.40247280010810715       0.11885604897533034       0.88114395102466969        0.0000000000000000     
 chl2c           3          19           4  0.19988185472786271        0.0000000000000000        1.0000000000000000     
 limit           3          19           5  0.97624915474193630       0.65524716677183048        1.0000000000000000        1.0000000000000000        0.0000000000000000        0.0000000000000000        0.0000000000000000     
 chl2c           3          19           5  0.49902622665600294        0.0000000000000000        1.0000000000000000     
 limit           3          19           6  0.98090863658992533       0.90479041363432822        1.0000000000000000       0.97852777144711534        1.9779692789066185E-002   4.7128337795762868E-003  0.97550747343135746     
 chl2c           3          19           6  0.49971175987206440        0.0000000000000000        1.0000000000000000     
 consum   0.0000000000000000        0.0000000000000000     
 reminPOC   1.9280994174169605E-007  0.39710199036650401        3.8580246913580245E-007   1.2585264771229707     
 reminPOSi   1.3190781601975083E-008  0.39710199036650401        7.7160493827160495E-008  0.43050030901083364     
 reminDOC   5.6001329615117335E-007   1.2968223458442489E-009
 limit           3          20           1  0.97686345573628452       0.88506992960898079       0.90630652141537804       0.97053421397824169        1.5774589518543585E-002   4.5222088346190221E-003  0.97970320164683744     
 chl2c           3          20           1  0.49988655234498869        0.0000000000000000        1.0000000000000000     
 limit           3          20           2  0.97686345573628452       0.88506992960898079        1.0000000000000000       0.97053421397824169        1.5774589518543585E-002   4.5222088346190221E-003  0.97970320164683744     
 chl2c           3          20           2  0.49988058284103526        0.0000000000000000        1.0000000000000000     
 limit           3          20           3  0.99194500223287430       0.95737622347644435        1.0000000000000000        1.0000000000000000        4.2745601958672198E-002   4.3982854432531105E-003  0.95285611259807468     
 chl2c           3          20           3  0.19994458954287611        0.0000000000000000        1.0000000000000000     
 limit           3          20           4  0.99261129237818513       0.96078892785537895        1.0000000000000000       0.39888796146890632       0.11817444306002640       0.88182555693997366        0.0000000000000000     
 chl2c           3          20           4  0.19994127125895927        0.0000000000000000        1.0000000000000000     
 limit           3          20           5  0.97686345573628452       0.65814721304145740        1.0000000000000000        1.0000000000000000        0.0000000000000000        0.0000000000000000        0.0000000000000000     
 chl2c           3          20           5  0.49951613860897276        0.0000000000000000        1.0000000000000000     
 limit           3          20           6  0.98140471847822264       0.90589279412815404        1.0000000000000000       0.97917639568485582        1.9469685183006832E-002   4.5052310223408117E-003  0.97602508379465236     
 chl2c           3          20           6  0.49985685814272141        0.0000000000000000        1.0000000000000000     
 consum   0.0000000000000000        0.0000000000000000     
 reminPOC   1.9173889333645965E-007  0.39470953883656462        3.8580246913580245E-007   1.2591213604642284     
 reminPOSi   1.3202623932042482E-008  0.39470953883656462        7.7160493827160495E-008  0.43349853328505333     
 reminDOC   5.4697335184298838E-007   1.3046557335089429E-009
 limit           3          21           1  0.97766208342852312       0.89419212237639978       0.91366363454482502       0.97181832794957068        1.4172603535348986E-002   3.9295797790706169E-003  0.98189781668558040     
 chl2c           3          21           1  0.49994898894862816        0.0000000000000000        1.0000000000000000     
 limit           3          21           2  0.97766208342852312       0.89419212237639978        1.0000000000000000       0.97181832794957068        1.4172603535348986E-002   3.9295797790706169E-003  0.98189781668558040     
 chl2c           3          21           2  0.49994630444399218        0.0000000000000000        1.0000000000000000     
 limit           3          21           3  0.99222718705309143       0.96101215369398396        1.0000000000000000        1.0000000000000000        3.8640020625583443E-002   3.8320508731093193E-003  0.95752792850130719     
 chl2c           3          21           3  0.19997510025817627        0.0000000000000000        1.0000000000000000     
 limit           3          21           4  0.99287030331544246       0.96414464730447358        1.0000000000000000       0.37150331336469744       0.11452197473774028       0.88547802526225972        0.0000000000000000     
 chl2c           3          21           4  0.19997341567964258        0.0000000000000000        1.0000000000000000     
 limit           3          21           5  0.97766208342852312       0.67874304063292346        1.0000000000000000        1.0000000000000000        0.0000000000000000        0.0000000000000000        0.0000000000000000     
 chl2c           3          21           5  0.49978285130820277        0.0000000000000000        1.0000000000000000     
 limit           3          21           6  0.98204947126013742       0.91352372364800027        1.0000000000000000       0.97993285506289241        1.7508767701874321E-002   3.9162815858012363E-003  0.97857495071232448     
 chl2c           3          21           6  0.49993562895150578        0.0000000000000000        1.0000000000000000     
 consum   0.0000000000000000        0.0000000000000000     
 reminPOC   1.9021556780062010E-007  0.39154514300508975        3.8580246913580245E-007   1.2592130448999039     
 reminPOSi   1.3419096233458971E-008  0.39154514300508975        7.7160493827160495E-008  0.44416714213555597     
 reminDOC   4.7159085240604835E-007   1.3229834518170943E-009
 limit           3          22           1  0.97840745110498306       0.90197438365114246       0.91994928455277625       0.97304511798872773        1.2575079680444200E-002   3.3763884640032617E-003  0.98404853185555252     
 chl2c           3          22           1  0.49997707927820145        0.0000000000000000        1.0000000000000000     
 limit           3          22           2  0.97840745110498306       0.90197438365114246        1.0000000000000000       0.97304511798872773        1.2575079680444200E-002   3.3763884640032617E-003  0.98404853185555252     
 chl2c           3          22           2  0.49997587298210022        0.0000000000000000        1.0000000000000000     
 limit           3          22           3  0.99249028206777401       0.96407718313538471        1.0000000000000000        1.0000000000000000        3.4494697245433983E-002   3.3014367969359131E-003  0.96220386595762997     
 chl2c           3          22           3  0.19998881107608879        0.0000000000000000        1.0000000000000000     
 limit           3          22           4  0.99311178118042698       0.96697187927976802        1.0000000000000000       0.34215811725274253       0.11082811507782647       0.88917188492217358        0.0000000000000000     
 chl2c           3          22           4  0.19998794464617092        0.0000000000000000        1.0000000000000000     
 limit           3          22           5  0.97840745110498306       0.69700217905581385        1.0000000000000000        1.0000000000000000        0.0000000000000000        0.0000000000000000        0.0000000000000000     
 chl2c           3          22           5  0.49990254070366935        0.0000000000000000        1.0000000000000000     
 limit           3          22           6  0.98265103922723362       0.92001131896911714        1.0000000000000000       0.98064079936177007        1.5549530717725153E-002   3.3662176632037765E-003  0.98108425161907109     
 chl2c           3          22           6  0.49997107360105436        0.0000000000000000        1.0000000000000000     
 consum   0.0000000000000000        0.0000000000000000     
 reminPOC   1.8863033886542711E-007  0.38825992224929939        3.8580246913580245E-007   1.2592848510005319     
 reminPOSi   1.3635926640978989E-008  0.38825992224929939        7.7160493827160495E-008  0.45516315009617658     
 reminDOC   3.9721535471502661E-007   1.3419997960589942E-009
 limit           3          23           1  0.97910466921659300       0.90869014920275126       0.92538190462962011       0.97422004623861314        1.0981385731237492E-002   2.8588036226747200E-003  0.98615981064608771     
 chl2c           3          23           1  0.49998969727162940        0.0000000000000000        1.0000000000000000     
 limit           3          23           2  0.97910466921659300       0.90869014920275126        1.0000000000000000       0.97422004623861314        1.0981385731237492E-002   2.8588036226747200E-003  0.98615981064608771     
 chl2c           3          23           2  0.49998915503427316        0.0000000000000000        1.0000000000000000     
 limit           3          23           3  0.99273614501681373       0.96669536702495473        1.0000000000000000        1.0000000000000000        3.0307805047406301E-002   2.8029397220794370E-003  0.96688925523051417     
 chl2c           3          23           3  0.19999497146246123        0.0000000000000000        1.0000000000000000     
 limit           3          23           4  0.99333743327220203       0.96938578684512999        1.0000000000000000       0.31062479340697163       0.10708601871912433       0.89291398128087562        0.0000000000000000     
 chl2c           3          23           4  0.19999451828086370        0.0000000000000000        1.0000000000000000     
 limit           3          23           5  0.97910466921659300       0.71329701669666556        1.0000000000000000        1.0000000000000000        0.0000000000000000        0.0000000000000000        0.0000000000000000     
 chl2c           3          23           5  0.49995624674013867        0.0000000000000000        1.0000000000000000     
 limit           3          23           6  0.98321358382956459       0.92559330654669325        1.0000000000000000       0.98130463197909901        1.3591280373034580E-002   2.8512596026238077E-003  0.98355746002434163     
 chl2c           3          23           6  0.49998699683908732        0.0000000000000000        1.0000000000000000     
 consum   0.0000000000000000        0.0000000000000000     
 reminPOC   1.8699025628257687E-007  0.38486190081371863        3.8580246913580245E-007   1.2593575598407547     
 reminPOSi   1.3843235903868318E-008  0.38486190081371863        7.7160493827160495E-008  0.46616289358548602     
 reminDOC   3.2393829639020483E-007   1.3610334183810958E-009
 limit           3          24           1  0.98014953875896538       0.91771417096105146       0.93382898718626295       0.97597097891565332        8.6183239191993145E-003   2.1351373595226062E-003  0.98924653872127810     
 chl2c           3          24           1  0.49999745261148476        0.0000000000000000        1.0000000000000000     
 limit           3          24           2  0.98014953875896538       0.91771417096105146        1.0000000000000000       0.97597097891565332        8.6183239191993145E-003   2.1351373595226062E-003  0.98924653872127810     
 chl2c           3          24           2  0.49999731853907009        0.0000000000000000        1.0000000000000000     
 limit           3          24           3  0.99310417436454423       0.97017497070015712        1.0000000000000000        1.0000000000000000        2.4004954049637123E-002   2.1019991952602513E-003  0.97389304675510258     
 chl2c           3          24           3  0.19999875983369583        0.0000000000000000        1.0000000000000000     
 limit           3          24           4  0.99367519193636689       0.97259227011290039        1.0000000000000000       0.25880820622222611       0.10154515458161156       0.89845484541838849        0.0000000000000000     
 chl2c           3          24           4  0.19999861413093817        0.0000000000000000        1.0000000000000000     
 limit           3          24           5  0.98014953875896538       0.73602170291579638        1.0000000000000000        1.0000000000000000        0.0000000000000000        0.0000000000000000        0.0000000000000000     
 chl2c           3          24           5  0.49998922544388319        0.0000000000000000        1.0000000000000000     
 limit           3          24           6  0.98405633317911867       0.93306985629637140        1.0000000000000000       0.98229093684672752        1.0681132770185155E-002   2.1306946909222489E-003  0.98718817253889268     
 chl2c           3          24           6  0.49999678462804642        0.0000000000000000        1.0000000000000000     
 consum   0.0000000000000000        0.0000000000000000     
 reminPOC   1.8529122863913874E-007  0.38148020602992727        3.8580246913580245E-007   1.2589771554096567     
 reminPOSi   1.4304366404043945E-008  0.38148020602992727        7.7160493827160495E-008  0.48596122594593033     
 reminDOC   2.1753858432740290E-007   1.4056694763081690E-009
 limit           3          25           1  0.98124308276238625       0.92575223427124009       0.94438889874761234       0.97764180066437567        6.7020162029233681E-003   1.5670560764813604E-003  0.99173092772059523     
 chl2c           3          25           1  0.49999965455782946        0.0000000000000000        1.0000000000000000     
 limit           3          25           2  0.98124308276238625       0.92575223427124009        1.0000000000000000       0.97764180066437567        6.7020162029233681E-003   1.5670560764813604E-003  0.99173092772059523     
 chl2c           3          25           2  0.49999963637667055        0.0000000000000000        1.0000000000000000     
 limit           3          25           3  0.99348880006479090       0.97323786125942369        1.0000000000000000        1.0000000000000000        1.8811283913202297E-002   1.5479521400426765E-003  0.97964076394675503     
 chl2c           3          25           3  0.19999983206813660        0.0000000000000000        1.0000000000000000     
 limit           3          25           4  0.99402815973889824       0.97541320655636143        1.0000000000000000       0.21139954122216692        9.7228143461112873E-002  0.90277185653888714        0.0000000000000000     
 chl2c           3          25           4  0.19999980585823096        0.0000000000000000        1.0000000000000000     
 limit           3          25           5  0.98124308276238625       0.75711086407223671        1.0000000000000000        1.0000000000000000        0.0000000000000000        0.0000000000000000        0.0000000000000000     
 chl2c           3          25           5  0.49999854276962630        0.0000000000000000        1.0000000000000000     
 limit           3          25           6  0.98493796273261813       0.93970645521942719        1.0000000000000000       0.98328897553882488        8.3157852962720338E-003   1.5645101469566646E-003  0.99011970455677134     
 chl2c           3          25           6  0.49999956394502576        0.0000000000000000        1.0000000000000000     
 consum   0.0000000000000000        0.0000000000000000     
 reminPOC   1.8132483730647103E-007  0.37400810056593609        3.8580246913580245E-007   1.2566411732451632     
 reminPOSi   1.4873570519525994E-008  0.37400810056593609        7.7160493827160495E-008  0.51539384746313488     
 reminDOC   1.2963094363175649E-007   1.5079999662415221E-009
 limit           3          26           1  0.98254410396365099       0.93418486380258325       0.95495856453728889       0.97973165521815642        4.1886937859722546E-003   8.9830581030239014E-004  0.99491300040372532     
 chl2c           3          26           1  0.49999998239942717        0.0000000000000000        1.0000000000000000     
 limit           3          26           2  0.98254410396365099       0.93418486380258325        1.0000000000000000       0.97973165521815642        4.1886937859722546E-003   8.9830581030239014E-004  0.99491300040372532     
 chl2c           3          26           2  0.49999998147308161        0.0000000000000000        1.0000000000000000     
 limit           3          26           3  0.99394567205782447       0.97641474962635399        1.0000000000000000       0.99995780375021914        1.1876493927198601E-002   8.9137076599006646E-004  0.98723213530681131     
 chl2c           3          26           3  0.19999999162841958        0.0000000000000000        1.0000000000000000     
 limit           3          26           4  0.99444739794685899       0.97833761108530404        1.0000000000000000       0.14025483279797324        9.2272444085950284E-002  0.90772755591404963        0.0000000000000000     
 chl2c           3          26           4  0.19999998943653552        0.0000000000000000        1.0000000000000000     
 limit           3          26           5  0.98254410396365099       0.78014818638023453        1.0000000000000000        1.0000000000000000        0.0000000000000000        0.0000000000000000        0.0000000000000000     
 chl2c           3          26           5  0.49999992744985633        0.0000000000000000        1.0000000000000000     
 limit           3          26           6  0.98598635903897958       0.94664558542973132        1.0000000000000000       0.98450931776980821        5.2051182401969811E-003   8.9738890969354396E-004  0.99389749285010953     
 chl2c           3          26           6  0.49999997778082689        0.0000000000000000        1.0000000000000000     
 consum   0.0000000000000000        0.0000000000000000     
 reminPOC   1.7673054017250797E-007  0.36665934332779426        3.8580246913580245E-007   1.2493492078220714     
 reminPOSi   1.5756242076523312E-008  0.36665934332779426        7.7160493827160495E-008  0.55692266139577429     
 reminDOC   1.9433097475485552E-008   1.6729610585222501E-009
 limit           3          27           1  0.98311698233518841       0.93500428746286057       0.96468486666383235       0.98087125511763096        3.6352117937100163E-003   7.1304342291580655E-004  0.99565174478337415     
 chl2c           3          27           1  0.49999999987033711        0.0000000000000000        1.0000000000000000     
 limit           3          27           2  0.98311698233518841       0.93500428746286057        1.0000000000000000       0.98087125511763096        3.6352117937100163E-003   7.1304342291580655E-004  0.99565174478337415     
 chl2c           3          27           2  0.49999999986351273        0.0000000000000000        1.0000000000000000     
 limit           3          27           3  0.99414659588992860       0.97672149664485464        1.0000000000000000       0.99945151369100149        1.0334960734565439E-002   7.0824878146117992E-004  0.98895679048397334     
 chl2c           3          27           3  0.19999999994344461        0.0000000000000000        1.0000000000000000     
 limit           3          27           4  0.99463176102642847       0.97861989719153664        1.0000000000000000       0.12026327806203363        9.3609184506021070E-002  0.90639081549397904        0.0000000000000000     
 chl2c           3          27           4  0.19999999992532774        0.0000000000000000        1.0000000000000000     
 limit           3          27           5  0.98311698233518841       0.78243878786158272        1.0000000000000000        1.0000000000000000        0.0000000000000000        0.0000000000000000        0.0000000000000000     
 chl2c           3          27           5  0.49999999950982094        0.0000000000000000        1.0000000000000000     
 limit           3          27           6  0.98644782554801691       0.94731861716735855        1.0000000000000000       0.98532507594477348        4.5194463779424758E-003   7.1241062490641808E-004  0.99476814299715111     
 chl2c           3          27           6  0.49999999983630694        0.0000000000000000        1.0000000000000000     
 consum   0.0000000000000000        0.0000000000000000     
 reminPOC   1.6481497193833588E-007  0.35696196043678285        3.8580246913580245E-007   1.1967673158827321     
 reminPOSi   1.6344010164222669E-008  0.35696196043678285        7.7160493827160495E-008  0.59339200028244565     
 reminDOC   6.1906203564703494E-009   2.0405344139461881E-009
 limit           3          28           1  0.98384273603484684       0.93667750873497513       0.97225687654986392       0.98191271103877009        3.0914736885312697E-003   5.5401788754849625E-004  0.99635450842392026     
 chl2c           3          28           1  0.49999999999954542        0.0000000000000000        1.0000000000000000     
 limit           3          28           2  0.98384273603484684       0.93667750873497513        1.0000000000000000       0.98191271103877009        3.0914736885312697E-003   5.5401788754849625E-004  0.99635450842392026     
 chl2c           3          28           2  0.49999999999952155        0.0000000000000000        1.0000000000000000     
 limit           3          28           3  0.99440091765242156       0.97734678785042817        1.0000000000000000       0.99892054952888232        8.8120067002750383E-003   5.5083878181194103E-004  0.99063715451791301     
 chl2c           3          28           3  0.19999999999985871        0.0000000000000000        1.0000000000000000     
 limit           3          28           4  0.99486511195963778       0.97919528105355846        1.0000000000000000       0.10062727909925660        9.5352306357613409E-002  0.90464769364238662        0.0000000000000000     
 chl2c           3          28           4  0.19999999999980242        0.0000000000000000        1.0000000000000000     
 limit           3          28           5  0.98384273603484684       0.78714547192428652        1.0000000000000000        1.0000000000000000        0.0000000000000000        0.0000000000000000        0.0000000000000000     
 chl2c           3          28           5  0.49999999999877537        0.0000000000000000        1.0000000000000000     
 limit           3          28           6  0.98703228426665168       0.94869221969392825        1.0000000000000000       0.98606275363191243        3.8451602018777361E-003   5.5359903687265456E-004  0.99560124076124956     
 chl2c           3          28           6  0.49999999999942585        0.0000000000000000        1.0000000000000000     
 consum   0.0000000000000000        0.0000000000000000     
 reminPOC   1.4482614324533771E-007  0.34932895786012214        3.8580246913580245E-007   1.0746013316257288     
 reminPOSi   1.5793637018675269E-008  0.34932895786012214        7.7160493827160495E-008  0.58593921619286826     
 reminDOC   1.3348243362107694E-009   2.4705367101552197E-009
 limit           3          29           1  0.98456933843685823       0.93883899270295923       0.97794775123301447       0.98279915552616537        2.5229857869073428E-003   4.1377706107261945E-004  0.99706323715202005     
 chl2c           3          29           1  0.49999999999999911        0.0000000000000000        1.0000000000000000     
 limit           3          29           2  0.98456933843685823       0.93883899270295923        1.0000000000000000       0.98279915552616537        2.5229857869073428E-003   4.1377706107261945E-004  0.99706323715202005     
 chl2c           3          29           2  0.49999999999999906        0.0000000000000000        1.0000000000000000     
 limit           3          29           3  0.99465529132155928       0.97815242453781159        1.0000000000000000       0.99828768010465652        7.2102703806542238E-003   4.1183266454420265E-004  0.99237789695480150     
 chl2c           3          29           3  0.19999999999999987        0.0000000000000000        1.0000000000000000     
 limit           3          29           4  0.99509850062090688       0.97993652764079364        1.0000000000000000        8.0397167562703153E-002   9.7604756882023191E-002  0.90239524311797670        0.0000000000000000     
 chl2c           3          29           4  0.19999999999999982        0.0000000000000000        1.0000000000000000     
 limit           3          29           5  0.98456933843685823       0.79328471582360405        1.0000000000000000        1.0000000000000000        0.0000000000000000        0.0000000000000000        0.0000000000000000     
 chl2c           3          29           5  0.49999999999999883        0.0000000000000000        1.0000000000000000     
 limit           3          29           6  0.98761725596299510       0.95046527543221793        1.0000000000000000       0.98667015404956282        3.1394130973230122E-003   4.1352135244251146E-004  0.99644706555023443     
 chl2c           3          29           6  0.49999999999999872        0.0000000000000000        1.0000000000000000     
 consum   0.0000000000000000        0.0000000000000000     
 reminPOC   1.1972610615681347E-007  0.34353932214669136        3.8580246913580245E-007  0.90333201224036153     
 reminPOSi   1.4404561331503886E-008  0.34353932214669136        7.7160493827160495E-008  0.54341119872320365     
 reminDOC   4.0998624324517120E-010   2.8901560060801574E-009
 limit           3          30           1  0.98523087653706898       0.94179773773899222       0.98307762457817482       0.98344720530458363        1.7627096016539583E-003   2.6883231047937934E-004  0.99796845808786672     
 chl2c           3          30           1  0.50000000000000000        0.0000000000000000        1.0000000000000000     
 limit           3          30           2  0.98523087653706898       0.94179773773899222        1.0000000000000000       0.98344720530458363        1.7627096016539583E-003   2.6883231047937934E-004  0.99796845808786672     
 chl2c           3          30           2  0.50000000000000000        0.0000000000000000        1.0000000000000000     
 limit           3          30           3  0.99488667352556182       0.97925136130032242        1.0000000000000000       0.99724281940605830        5.0533235414236856E-003   2.6794612504347869E-004  0.99467873033353282     
 chl2c           3          30           3  0.20000000000000001        0.0000000000000000        1.0000000000000000     
 limit           3          30           4  0.99531078594156575       0.98094747168977670        1.0000000000000000        5.5179399129055735E-002   9.9584260025770560E-002  0.90041573997422941        0.0000000000000000     
 chl2c           3          30           4  0.20000000000000001        0.0000000000000000        1.0000000000000000     
 limit           3          30           5  0.98523087653706898       0.80179831100615262        1.0000000000000000        1.0000000000000000        0.0000000000000000        0.0000000000000000        0.0000000000000000     
 chl2c           3          30           5  0.50000000000000000        0.0000000000000000        1.0000000000000000     
 limit           3          30           6  0.98814969751355619       0.95288980622048935        1.0000000000000000       0.98704862831053386        2.1943965374527476E-003   2.6871605415688883E-004  0.99753688740839042     
 chl2c           3          30           6  0.50000000000000000        0.0000000000000000        1.0000000000000000     
 consum   0.0000000000000000        0.0000000000000000     
 reminPOC   8.4572006122269067E-008  0.33918488304902433        3.8580246913580245E-007  0.64628658535244243     
 reminPOSi   1.1433337128185602E-008  0.33918488304902433        7.7160493827160495E-008  0.43685923691318718     
 reminDOC   8.3423773028457089E-011   3.1881242522375997E-009
 limit           3          31           1  0.98456011684392231       0.94353383920027523       0.98577932621745834       0.98278043782399283        1.0483596716179438E-003   1.6361843096021465E-004  0.99878802189742188     
 chl2c           3          31           1  0.50000000000000000        0.0000000000000000        1.0000000000000000     
 limit           3          31           2  0.98456011684392231       0.94353383920027523        1.0000000000000000       0.98278043782399283        1.0483596716179438E-003   1.6361843096021465E-004  0.99878802189742188     
 chl2c           3          31           2  0.50000000000000000        0.0000000000000000        1.0000000000000000     
 limit           3          31           3  0.99465206450416810       0.97989411785711411        1.0000000000000000       0.99580433723089790        3.0117770134659438E-003   1.6329684255510661E-004  0.99682492614397888     
 chl2c           3          31           3  0.19999999999999996        0.0000000000000000        1.0000000000000000     
 limit           3          31           4  0.99509554006754064       0.98153867626909319        1.0000000000000000        3.2579186811379959E-002  0.10039839148841037       0.89960160851158966        0.0000000000000000     
 chl2c           3          31           4  0.19999999999999996        0.0000000000000000        1.0000000000000000     
 limit           3          31           5  0.98456011684392231       0.80685399665004853        1.0000000000000000        1.0000000000000000        0.0000000000000000        0.0000000000000000        0.0000000000000000     
 chl2c           3          31           5  0.50000000000000000        0.0000000000000000        1.0000000000000000     
 limit           3          31           6  0.98760983292876503       0.95431109595976027        1.0000000000000000       0.98637611695881455        1.3053363270565865E-003   1.6357634071734517E-004  0.99853108733222606     
 chl2c           3          31           6  0.50000000000000000        0.0000000000000000        1.0000000000000000     
 consum   0.0000000000000000        0.0000000000000000     
 reminPOC   5.0862436826803924E-008  0.33808767725033129        3.8580246913580245E-007  0.38994451772775046     
 reminPOSi   7.9451004491285197E-009  0.33808767725033129        7.7160493827160495E-008  0.30456153462364832     
 reminDOC   1.1544008512080110E-011   3.0158362456573773E-009
 limit           3          32           1  0.98367397331961282       0.94681460559611241       0.98609105675622821       0.98205064117037744        5.8107608143373175E-004   9.4436496793718117E-005  0.99932448742177249     
 chl2c           3          32           1  0.50000000000000000        0.0000000000000000        1.0000000000000000     
 limit           3          32           2  0.98367397331961282       0.94681460559611241        1.0000000000000000       0.98205064117037744        5.8107608143373175E-004   9.4436496793718117E-005  0.99932448742177249     
 chl2c           3          32           2  0.50000000000000000        0.0000000000000000        1.0000000000000000     
 limit           3          32           3  0.99434180096982205       0.98110460601658811        1.0000000000000000       0.99475759611513626        1.6713279337110640E-003   9.4333477366040841E-005  0.99823433858892296     
 chl2c           3          32           3  0.19999999999999993        0.0000000000000000        1.0000000000000000     
 limit           3          32           4  0.99481087079518404       0.98265190559198057        1.0000000000000000        1.8122628716484766E-002  0.10006464719894749       0.89993535280105241        0.0000000000000000     
 chl2c           3          32           4  0.19999999999999993        0.0000000000000000        1.0000000000000000     
 limit           3          32           5  0.98367397331961282       0.81653189324012487        1.0000000000000000        1.0000000000000000        0.0000000000000000        0.0000000000000000        0.0000000000000000     
 chl2c           3          32           5  0.50000000000000000        0.0000000000000000        1.0000000000000000     
 limit           3          32           6  0.98689639268717055       0.95699422869519191        1.0000000000000000       0.98569934727273290        7.2355320904636988E-004   9.4423033929965039E-005  0.99918202375702370     
 chl2c           3          32           6  0.50000000000000000        0.0000000000000000        1.0000000000000000     
 consum   0.0000000000000000        0.0000000000000000     
 reminPOC   2.8295416195493364E-008  0.33593687238164205        3.8580246913580245E-007  0.21831994284747264     
 reminPOSi   5.3776011246844282E-009  0.33593687238164205        7.7160493827160495E-008  0.20746073535129675     
 reminDOC   8.2445099575463834E-013   2.5079359718911640E-009
 limit           3          33           1  0.98262719564178846       0.95306761506582971       0.98659009850815416       0.98137070052048359        3.3401004892705027E-004   5.7190267543050532E-005  0.99960879968352989     
 chl2c           3          33           1  0.50000000000000000        0.0000000000000000        1.0000000000000000     
 limit           3          33           2  0.98262719564178846       0.95306761506582971        1.0000000000000000       0.98137070052048359        3.3401004892705027E-004   5.7190267543050532E-005  0.99960879968352989     
 chl2c           3          33           2  0.50000000000000000        0.0000000000000000        1.0000000000000000     
 limit           3          33           3  0.99397482402926007       0.98339683366685937        1.0000000000000000       0.99410001283423155        9.6111770061504129E-004   5.7154391105581564E-005  0.99898172790827933     
 chl2c           3          33           3  0.20000000000000001        0.0000000000000000        1.0000000000000000     
 limit           3          33           4  0.99447414750735041       0.98475934393231113        1.0000000000000000        1.0581017674520847E-002   9.8498599465651981E-002  0.90150140053434813        0.0000000000000000     
 chl2c           3          33           4  0.20000000000000001        0.0000000000000000        1.0000000000000000     
 limit           3          33           5  0.98262719564178846       0.83544003511370968        1.0000000000000000        1.0000000000000000        0.0000000000000000        0.0000000000000000        0.0000000000000000     
 chl2c           3          33           5  0.50000000000000000        0.0000000000000000        1.0000000000000000     
 limit           3          33           6  0.98605329784784446       0.96209832888901792        1.0000000000000000       0.98510438893836250        4.1589604663696080E-004   5.7185582896214358E-005  0.99952691837046681     
 chl2c           3          33           6  0.50000000000000000        0.0000000000000000        1.0000000000000000     
 consum   0.0000000000000000        0.0000000000000000     
 reminPOC   1.6196833163678082E-008  0.33202349387945834        3.8580246913580245E-007  0.12644343648614004     
 reminPOSi   4.0666528132321711E-009  0.33202349387945834        7.7160493827160495E-008  0.15873521431776494     
 reminDOC   2.6922659702460704E-014   1.9796785522984432E-009
 limit           3          34           1  0.98238262048560743       0.95707067620130304       0.98775941572498394       0.98134801354068713        1.9017347307209777E-004   3.3644211301299678E-005  0.99977618231562659     
 chl2c           3          34           1  0.50000000000000000        0.0000000000000000        1.0000000000000000     
 limit           3          34           2  0.98238262048560743       0.95707067620130304        1.0000000000000000       0.98134801354068713        1.9017347307209777E-004   3.3644211301299678E-005  0.99977618231562659     
 chl2c           3          34           2  0.50000000000000000        0.0000000000000000        1.0000000000000000     
 limit           3          34           3  0.99388900781286205       0.98485409822928149        1.0000000000000000       0.99384829277835463        5.4750030862623397E-004   3.3632187035044203E-005  0.99941886750433873     
 chl2c           3          34           3  0.19999999999999996        0.0000000000000000        1.0000000000000000     
 limit           3          34           4  0.99439540302442941       0.98609871108046954        1.0000000000000000        6.2090468365324503E-003   9.5597515805322497E-002  0.90440248419467739        0.0000000000000000     
 chl2c           3          34           4  0.19999999999999996        0.0000000000000000        1.0000000000000000     
 limit           3          34           5  0.98238262048560743       0.84787462344907238        1.0000000000000000        1.0000000000000000        0.0000000000000000        0.0000000000000000        0.0000000000000000     
 chl2c           3          34           5  0.50000000000000000        0.0000000000000000        1.0000000000000000     
 limit           3          34           6  0.98585626126587955       0.96535911904197858        1.0000000000000000       0.98505874061644760        2.3681031063097264E-004   3.3642641943232147E-005  0.99972954704742578     
 chl2c           3          34           6  0.50000000000000000        0.0000000000000000        1.0000000000000000     
 consum   0.0000000000000000        0.0000000000000000     
 reminPOC   9.1580393170830657E-009  0.32656291493180140        3.8580246913580245E-007   7.2689325163687424E-002
 reminPOSi   3.5230070970100036E-009  0.32656291493180140        7.7160493827160495E-008  0.13981432027205168     
 reminDOC   8.5748233600704726E-016   1.5452673320846030E-009
 limit           3          35           1  0.98297774119488679       0.95950901808392985       0.98939038367774990       0.98196785763144445        1.1958808609727203E-004   2.1677029037574194E-005  0.99985873488486521     
 chl2c           3          35           1  0.50000000000000000        0.0000000000000000        1.0000000000000000     
 limit           3          35           2  0.98297774119488679       0.95950901808392985        1.0000000000000000       0.98196785763144445        1.1958808609727203E-004   2.1677029037574194E-005  0.99985873488486521     
 chl2c           3          35           2  0.50000000000000000        0.0000000000000000        1.0000000000000000     
 limit           3          35           3  0.99409777435578506       0.98573788617628511        1.0000000000000000       0.99394645212506116        3.4451747809752237E-004   2.1672152653454956E-005  0.99963381036924903     
 chl2c           3          35           3  0.19999999999999993        0.0000000000000000        1.0000000000000000     
 limit           3          35           4  0.99458696407951763       0.98691083906967414        1.0000000000000000        4.1219305644934869E-003   9.0625124688148928E-002  0.90937487531185113        0.0000000000000000     
 chl2c           3          35           4  0.19999999999999993        0.0000000000000000        1.0000000000000000     
 limit           3          35           5  0.98297774119488679       0.85557928233728064        1.0000000000000000        1.0000000000000000        0.0000000000000000        0.0000000000000000        0.0000000000000000     
 chl2c           3          35           5  0.50000000000000000        0.0000000000000000        1.0000000000000000     
 limit           3          35           6  0.98633567341520467       0.96734274964039602        1.0000000000000000       0.98554484893956684        1.4893818554052233E-004   2.1676392738522520E-005  0.99982938542172095     
 chl2c           3          35           6  0.50000000000000000        0.0000000000000000        1.0000000000000000     
 consum   0.0000000000000000        0.0000000000000000     
 reminPOC   5.7188987494393641E-009  0.31938538922863496        3.8580246913580245E-007   4.6412221906417188E-002
 reminPOSi   4.3590033617122660E-009  0.31938538922863496        7.7160493827160495E-008  0.17687936102596777     
 reminDOC   1.3655244573861229E-015   1.6411179417347507E-009
 graz           3           7           1   2.3179785804345661E-009   3.4164155801052889E-008  0.17200000000000001       0.10270404586249321       0.26036180543866111     
 graz           3           7           2   2.4247148635477662E-009   3.4164155801052889E-008  0.18000000000000002       0.10265846124151320       0.26036180543866111     
 graz           3           7           3   1.3537075679939388E-008   3.4164155801052889E-008   1.0000000000000000       0.10316477553003633       0.26036180543866111     
 graz           3           7           4   1.3547576148013090E-008   3.4164155801052889E-008   1.0000000000000000       0.10324479860572831       0.26036180543866111     
 graz           3           7           5   1.8091984067221829E-010   3.4164155801052889E-008  0.13500000000000001        1.0213133500458584E-002  0.26036180543866111     
 graz           3           7           6   2.1558906884458617E-009   3.4164155801052889E-008  0.16000000000000003       0.10268649605320843       0.26036180543866111     
 graz           3           8           1   1.1499063793985169E-008   4.0494590492357185E-008  0.85999999999999999       0.10270404586249321       0.31104307134163522     
 graz           3           8           2   1.2028562788933363E-008   4.0494590492357185E-008  0.90000000000000002       0.10265846124151320       0.31104307134163522     
 graz           3           8           3   2.6861973297172560E-009   4.0494590492357185E-008  0.20000000000000001       0.10316477553003633       0.31104307134163522     
 graz           3           8           4   2.6882809650582449E-009   4.0494590492357185E-008  0.20000000000000001       0.10324479860572831       0.31104307134163522     
 graz           3           8           5   8.9750992828304895E-010   4.0494590492357185E-008  0.67500000000000004        1.0213133500458584E-002  0.31104307134163522     
 graz           3           8           6   1.0694975686380109E-008   4.0494590492357185E-008  0.80000000000000004       0.10268649605320843       0.31104307134163522     
 prey           3           1           1   1.3817042374419735E-008
 prey           3           1           2   1.4453277652481129E-008
 prey           3           1           3   1.6223273009656642E-008
 prey           3           1           4   1.6235857113071336E-008
 prey           3           1           5   1.0784297689552671E-009
 prey           3           1           6   1.2850866374825970E-008
 pred           3           1           7   2.4499523051602148E-008
 pred           3           1           8   3.2933120223363309E-008
 mort           3           1   7.6892365255482513E-008   1.6534391534391535E-006  0.45280107629624489       0.10270404586249321        0.0000000000000000        0.0000000000000000       0.45280107629624489        1.0548121036525108E-002
 mort           3           2   7.6858237005743252E-008   1.6534391534391535E-006  0.45280107629624489       0.10265846124151320        0.0000000000000000        0.0000000000000000       0.45280107629624489        1.0538759664475268E-002
 mort           3           3   7.7237303895272750E-008   1.6534391534391535E-006  0.45280107629624489       0.10316477553003633        0.0000000000000000        0.0000000000000000       0.45280107629624489        1.0642970910162784E-002
 mort           3           4   7.7297215493820810E-008   1.6534391534391535E-006  0.45280107629624489       0.10324479860572831        0.0000000000000000        0.0000000000000000       0.45280107629624489        1.0659488439137398E-002
 mort           3           5   7.6463588646906107E-009   1.6534391534391535E-006  0.45280107629624489        1.0213133500458582E-002   0.0000000000000000        0.0000000000000000       0.45280107629624489        1.0430809589818936E-004
 mort           3           6   7.6879226081320903E-008   1.6534391534391535E-006  0.45280107629624489       0.10268649605320843        0.0000000000000000        0.0000000000000000       0.45280107629624489        1.0544516471685590E-002
 mort           3           7   7.4063138072571590E-008   2.3148148148148148E-007  0.45280107629624489       0.31349394662770869        4.1204250006510470E-008   9.2592592592592583E-007  0.45280107629624489        9.8278454572216664E-002
 mort           3           8   7.4085640432298230E-008   2.3148148148148148E-007  0.45280107629624489       0.31355514226563275        4.1220338141534186E-008   9.2592592592592583E-007  0.45280107629624489        9.8316827241221191E-002
 graz           3           7           1   2.3220317788408410E-009   3.4212952210429905E-008  0.17200000000000001       0.10279316586537596       0.26050441039503830     
 graz           3           7           2   2.4289575718624869E-009   3.4212952210429905E-008  0.18000000000000002       0.10274766316582035       0.26050441039503830     
 graz           3           7           3   1.3555319766674768E-008   3.4212952210429905E-008   1.0000000000000000       0.10321297506905344       0.26050441039503830     
 graz           3           7           4   1.3565811614687148E-008   3.4212952210429905E-008   1.0000000000000000       0.10329286214408891       0.26050441039503830     
 graz           3           7           5   1.8116846414688305E-010   3.4212952210429905E-008  0.13500000000000001        1.0218175646523421E-002  0.26050441039503830     
 graz           3           7           6   2.1596630142177806E-009   3.4212952210429905E-008  0.16000000000000003       0.10277572231826859       0.26050441039503830     
 graz           3           8           1   1.1518976322057809E-008   4.0562245476976943E-008  0.85999999999999999       0.10279316586537596       0.31129403335210826     
 graz           3           8           2   1.2049406477776193E-008   4.0562245476976943E-008  0.90000000000000002       0.10274766316582035       0.31129403335210826     
 graz           3           8           3   2.6897721013653945E-009   4.0562245476976943E-008  0.20000000000000001       0.10321297506905344       0.31129403335210826     
 graz           3           8           4   2.6918539910265181E-009   4.0562245476976943E-008  0.20000000000000001       0.10329286214408891       0.31129403335210826     
 graz           3           8           5   8.9872811725828055E-010   4.0562245476976943E-008  0.67500000000000004        1.0218175646523421E-002  0.31129403335210826     
 graz           3           8           6   1.0713508467492753E-008   4.0562245476976943E-008  0.80000000000000004       0.10277572231826859       0.31129403335210826     
 prey           3           2           1   1.3841008100898651E-008
 prey           3           2           2   1.4478364049638679E-008
 prey           3           2           3   1.6245091868040162E-008
 prey           3           2           4   1.6257665605713666E-008
 prey           3           2           5   1.0798965814051636E-009
 prey           3           2           6   1.2873171481710533E-008
 pred           3           2           7   2.4533633436716730E-008
 pred           3           2           8   3.2987958990820751E-008
 mort           3           1   7.6948424360892269E-008   1.6534391534391535E-006  0.45273833782313028       0.10279316586537596        0.0000000000000000        0.0000000000000000       0.45273833782313028        1.0566434948626692E-002
 mort           3           2   7.6914362164193749E-008   1.6534391534391535E-006  0.45273833782313028       0.10274766316582035        0.0000000000000000        0.0000000000000000       0.45273833782313028        1.0557082286036875E-002
 mort           3           3   7.7262683158967329E-008   1.6534391534391535E-006  0.45273833782313028       0.10321297506905344        0.0000000000000000        0.0000000000000000       0.45273833782313028        1.0652918222605048E-002
 mort           3           4   7.7322484649650373E-008   1.6534391534391535E-006  0.45273833782313028       0.10329286214408891        0.0000000000000000        0.0000000000000000       0.45273833782313028        1.0669415369917756E-002
 mort           3           5   7.6490738389414711E-009   1.6534391534391535E-006  0.45273833782313028        1.0218175646523419E-002   0.0000000000000000        0.0000000000000000       0.45273833782313028        1.0441111354320430E-004
 mort           3           6   7.6935366552487627E-008   1.6534391534391535E-006  0.45273833782313028       0.10277572231826859        0.0000000000000000        0.0000000000000000       0.45273833782313028        1.0562849098041853E-002
 mort           3           7   7.4172965784583184E-008   2.3148148148148148E-007  0.45273833782313028       0.31382047936199997        4.1284409719488323E-008   9.2592592592592583E-007  0.45273833782313028        9.8483293266995453E-002
 mort           3           8   7.4195515478262700E-008   2.3148148148148148E-007  0.45273833782313028       0.31388176658176559        4.1300536479370029E-008   9.2592592592592583E-007  0.45273833782313028        9.8521763392489969E-002
 graz           3           7           1   2.3323343743540039E-009   3.4356019999005510E-008  0.17200000000000001       0.10296798187365819       0.26088113880498542     
 graz           3           7           2   2.4397407479176327E-009   3.4356019999005510E-008  0.18000000000000002       0.10292266177063046       0.26088113880498542     
 graz           3           7           3   1.3611144009591920E-008   3.4356019999005510E-008   1.0000000000000000       0.10335570737715782       0.26088113880498542     
 graz           3           7           4   1.3621624236039482E-008   3.4356019999005510E-008   1.0000000000000000       0.10343528858041284       0.26088113880498542     
 graz           3           7           5   1.8192566160412677E-010   3.4356019999005510E-008  0.13500000000000001        1.0232930610987392E-002  0.26088113880498542     
 graz           3           7           6   2.1692509694983457E-009   3.4356019999005510E-008  0.16000000000000003       0.10295078258717984       0.26088113880498542     
 graz           3           8           1   1.1569839785218632E-008   4.0739455372058932E-008  0.85999999999999999       0.10296798187365819       0.31180891342858796     
 graz           3           8           2   1.2102642691914509E-008   4.0739455372058932E-008  0.90000000000000002       0.10292266177063046       0.31180891342858796     
 graz           3           8           3   2.7007920856654079E-009   4.0739455372058932E-008  0.20000000000000001       0.10335570737715782       0.31180891342858796     
 graz           3           8           4   2.7028716252416264E-009   4.0739455372058932E-008  0.20000000000000001       0.10343528858041284       0.31180891342858796     
 graz           3           8           5   9.0246526429669267E-010   4.0739455372058932E-008  0.67500000000000004        1.0232930610987392E-002  0.31180891342858796     
 graz           3           8           6   1.0760843919722061E-008   4.0739455372058932E-008  0.80000000000000004       0.10295078258717984       0.31180891342858796     
 prey           3           3           1   1.3902174159572636E-008
 prey           3           3           2   1.4542383439832141E-008
 prey           3           3           3   1.6311936095257329E-008
 prey           3           3           4   1.6324495861281110E-008
 prey           3           3           5   1.0843909259008194E-009
 prey           3           3           6   1.2930094889220407E-008
 pred           3           3           7   2.4635515297854766E-008
 pred           3           3           8   3.3131930668737845E-008
 mort           3           1   7.7051103114707196E-008   1.6534391534391535E-006  0.45257279317131582       0.10296798187365819        0.0000000000000000        0.0000000000000000       0.45257279317131582        1.0602405291134001E-002
 mort           3           2   7.7017190010186572E-008   1.6534391534391535E-006  0.45257279317131582       0.10292266177063046        0.0000000000000000        0.0000000000000000       0.45257279317131582        1.0593074305951597E-002
 mort           3           3   7.7341238720035531E-008   1.6534391534391535E-006  0.45257279317131582       0.10335570737715782        0.0000000000000000        0.0000000000000000       0.45257279317131582        1.0682402247432676E-002
 mort           3           4   7.7400789459852104E-008   1.6534391534391535E-006  0.45257279317131582       0.10343528858041284        0.0000000000000000        0.0000000000000000       0.45257279317131582        1.0698858923713283E-002
 mort           3           5   7.6573181034107527E-009   1.6534391534391535E-006  0.45257279317131582        1.0232930610987390E-002   0.0000000000000000        0.0000000000000000       0.45257279317131582        1.0471286888928277E-004
 mort           3           6   7.7038232861529174E-008   1.6534391534391535E-006  0.45257279317131582       0.10295078258717984        0.0000000000000000        0.0000000000000000       0.45257279317131582        1.0598863635312771E-002
 mort           3           7   7.4510821562549690E-008   2.3148148148148148E-007  0.45257279317131582       0.31481175400283323        4.1530443129164637E-008   9.2592592592592583E-007  0.45257279317131582        9.9106440458340384E-002
 mort           3           8   7.4533512323292347E-008   2.3148148148148148E-007  0.45257279317131582       0.31487330812643982        4.1546685343228633E-008   9.2592592592592583E-007  0.45257279317131582        9.9145200170487918E-002
 graz           3           7           1   2.4701514463392053E-009   3.6363902529965125E-008  0.17200000000000001       0.10496592014389046       0.26578083910394290     
 graz           3           7           2   2.5839614479783638E-009   3.6363902529965125E-008  0.18000000000000002       0.10492203563226966       0.26578083910394290     
 graz           3           7           3   1.4404531955440828E-008   3.6363902529965125E-008   1.0000000000000000       0.10528156560924251       0.26578083910394290     
 graz           3           7           4   1.4415130938623092E-008   3.6363902529965125E-008   1.0000000000000000       0.10535903272492156       0.26578083910394290     
 graz           3           7           5   1.9263854129426640E-010   3.6363902529965125E-008  0.13500000000000001        1.0429478561371433E-002  0.26578083910394290     
 graz           3           7           6   2.2974882002893713E-009   3.6363902529965125E-008  0.16000000000000003       0.10495097803397503       0.26578083910394290     
 graz           3           8           1   1.2251437342999491E-008   4.3135440592295084E-008  0.85999999999999999       0.10496592014389046       0.31782932351572701     
 graz           3           8           2   1.2815911276836723E-008   4.3135440592295084E-008  0.90000000000000002       0.10492203563226966       0.31782932351572701     
 graz           3           8           3   2.8577392850767459E-009   4.3135440592295084E-008  0.20000000000000001       0.10528156560924251       0.31782932351572701     
 graz           3           8           4   2.8598420351498144E-009   4.3135440592295084E-008  0.20000000000000001       0.10535903272492156       0.31782932351572701     
 graz           3           8           5   9.5544709293481604E-010   4.3135440592295084E-008  0.67500000000000004        1.0429478561371433E-002  0.31782932351572701     
 graz           3           8           6   1.1395063559297502E-008   4.3135440592295084E-008  0.80000000000000004       0.10495097803397503       0.31782932351572701     
 prey           3           4           1   1.4721588789338696E-008
 prey           3           4           2   1.5399872724815087E-008
 prey           3           4           3   1.7262271240517573E-008
 prey           3           4           4   1.7274972973772907E-008
 prey           3           4           5   1.1480856342290824E-009
 prey           3           4           6   1.3692551759586874E-008
 pred           3           4           7   2.6073426169611619E-008
 pred           3           4           8   3.5080110605858728E-008
 mort           3           1   7.8256625831306815E-008   1.6534391534391535E-006  0.45090451489296240       0.10496592014389046        0.0000000000000000        0.0000000000000000       0.45090451489296240        1.1017844391653589E-002
 mort           3           2   7.8223908032987218E-008   1.6534391534391535E-006  0.45090451489296240       0.10492203563226966        0.0000000000000000        0.0000000000000000       0.45090451489296240        1.1008633561219266E-002
 mort           3           3   7.8491953155104320E-008   1.6534391534391535E-006  0.45090451489296240       0.10528156560924251        0.0000000000000000        0.0000000000000000       0.45090451489296240        1.1084208057133236E-002
 mort           3           4   7.8549708234825576E-008   1.6534391534391535E-006  0.45090451489296240       0.10535903272492156        0.0000000000000000        0.0000000000000000       0.45090451489296240        1.1100525776731093E-002
 mort           3           5   7.7756266059883225E-009   1.6534391534391535E-006  0.45090451489296240        1.0429478561371431E-002   0.0000000000000000        0.0000000000000000       0.45090451489296240        1.0877402306210629E-004
 mort           3           6   7.8245485843173716E-008   1.6534391534391535E-006  0.45090451489296240       0.10495097803397503        0.0000000000000000        0.0000000000000000       0.45090451489296240        1.1014707790287910E-002
 mort           3           7   7.9354470672211033E-008   2.3148148148148148E-007  0.45090451489296240       0.32853465718234803        4.5063322472597065E-008   9.2592592592592583E-007  0.45090451489296240       0.10793502096992294     
 mort           3           8   7.9379153576771135E-008   2.3148148148148148E-007  0.45090451489296240       0.32859982958883616        4.5081202939117370E-008   9.2592592592592583E-007  0.45090451489296240       0.10797784800581216     
 graz           3           7           1   2.8623956209937825E-009   4.2125014143702494E-008  0.17200000000000001       0.11029725002570145       0.27919236164347533     
 graz           3           7           2   2.9943649920904555E-009   4.2125014143702494E-008  0.18000000000000002       0.11025434264048120       0.27919236164347533     
 graz           3           7           3   1.6685646564147499E-008   4.2125014143702494E-008   1.0000000000000000       0.11058762031274252       0.27919236164347533     
 graz           3           7           4   1.6696858581394784E-008   4.2125014143702494E-008   1.0000000000000000       0.11066193030735472       0.27919236164347533     
 graz           3           7           5   2.2333846086179144E-010   4.2125014143702494E-008  0.13500000000000001        1.0964610862379822E-002  0.27919236164347533     
 graz           3           7           6   2.6624099242141744E-009   4.2125014143702494E-008  0.16000000000000003       0.11028549923280932       0.27919236164347533     
 graz           3           8           1   1.4191138585786209E-008   4.9963599023801577E-008  0.85999999999999999       0.11029725002570145       0.33396396524090965     
 graz           3           8           2   1.4845414193454208E-008   4.9963599023801577E-008  0.90000000000000002       0.11025434264048120       0.33396396524090965     
 graz           3           8           3   3.3089531167331110E-009   4.9963599023801577E-008  0.20000000000000001       0.11058762031274252       0.33396396524090965     
 graz           3           8           4   3.3111765870237372E-009   4.9963599023801577E-008  0.20000000000000001       0.11066193030735472       0.33396396524090965     
 graz           3           8           5   1.1072637990291128E-009   4.9963599023801577E-008  0.67500000000000004        1.0964610862379822E-002  0.33396396524090965     
 graz           3           8           6   1.3199652741775194E-008   4.9963599023801577E-008  0.80000000000000004       0.11028549923280932       0.33396396524090965     
 prey           3           5           1   1.7053534206779991E-008
 prey           3           5           2   1.7839779185544663E-008
 prey           3           5           3   1.9994599680880608E-008
 prey           3           5           4   2.0008035168418523E-008
 prey           3           5           5   1.3306022598909043E-009
 prey           3           5           6   1.5862062665989369E-008
 pred           3           5           7   3.0203007715697909E-008
 pred           3           5           8   4.0632892189416945E-008
 mort           3           1   8.1466590100305594E-008   1.6534391534391535E-006  0.44671098945063181       0.11029725002570145        0.0000000000000000        0.0000000000000000       0.44671098945063181        1.2165483363232100E-002
 mort           3           2   8.1434898300526365E-008   1.6534391534391535E-006  0.44671098945063181       0.11025434264048120        0.0000000000000000        0.0000000000000000       0.44671098945063181        1.2156020071084631E-002
 mort           3           3   8.1681060335476195E-008   1.6534391534391535E-006  0.44671098945063181       0.11058762031274252        0.0000000000000000        0.0000000000000000       0.44671098945063181        1.2229621766435304E-002
 mort           3           4   8.1735946399000151E-008   1.6534391534391535E-006  0.44671098945063181       0.11066193030735472        0.0000000000000000        0.0000000000000000       0.44671098945063181        1.2246062819349833E-002
 mort           3           5   8.0985650913935767E-009   1.6534391534391535E-006  0.44671098945063181        1.0964610862379820E-002   0.0000000000000000        0.0000000000000000       0.44671098945063181        1.2022269136341754E-004
 mort           3           6   8.1457910853745291E-008   1.6534391534391535E-006  0.44671098945063181       0.11028549923280932        0.0000000000000000        0.0000000000000000       0.44671098945063181        1.2162891341029986E-002
 mort           3           7   9.3450915679136793E-008   2.3148148148148148E-007  0.44671098945063181       0.36648603842229655        5.5554309002408464E-008   9.2592592592592583E-007  0.44671098945063181       0.13431201635846901     
 mort           3           8   9.3481585685448780E-008   2.3148148148148148E-007  0.44671098945063181       0.36656146709727749        5.5577179282323760E-008   9.2592592592592583E-007  0.44671098945063181       0.13436730916050846     
 graz           3           7           1   5.7566692657560068E-009   8.4335305992330003E-008  0.17200000000000001       0.20611584009180128       0.51937131739611342     
 graz           3           7           2   6.0186580654572538E-009   8.4335305992330003E-008  0.18000000000000002       0.20591865949275068       0.51937131739611342     
 graz           3           7           3   3.3379356564187283E-008   8.4335305992330003E-008   1.0000000000000000       0.20556373381930015       0.51937131739611342     
 graz           3           7           4   3.3391523039923894E-008   8.4335305992330003E-008   1.0000000000000000       0.20563865995441100       0.51937131739611342     
 graz           3           7           5   4.4264903266465335E-010   8.4335305992330003E-008  0.13500000000000001        2.0192695102629072E-002  0.51937131739611342     
 graz           3           7           6   5.3464500243409268E-009   8.4335305992330003E-008  0.16000000000000003       0.20578516611914061       0.51937131739611342     
 graz           3           8           1   2.8342662000379298E-008   9.9627258881617268E-008  0.85999999999999999       0.20611584009180128       0.62308509686675406     
 graz           3           8           2   2.9632550242177109E-008   9.9627258881617268E-008  0.90000000000000002       0.20591865949275068       0.62308509686675406     
 graz           3           8           3   6.5736611030730043E-009   9.9627258881617268E-008  0.20000000000000001       0.20556373381930015       0.62308509686675406     
 graz           3           8           4   6.5760571435166680E-009   9.9627258881617268E-008  0.20000000000000001       0.20563865995441100       0.62308509686675406     
 graz           3           8           5   2.1793595112783529E-009   9.9627258881617268E-008  0.67500000000000004        2.0192695102629072E-002  0.62308509686675406     
 graz           3           8           6   2.6322968881192830E-008   9.9627258881617268E-008  0.80000000000000004       0.20578516611914061       0.62308509686675406     
 prey           3           6           1   3.4099331266135306E-008
 prey           3           6           2   3.5651208307634365E-008
 prey           3           6           3   3.9953017667260285E-008
 prey           3           6           4   3.9967580183440565E-008
 prey           3           6           5   2.6220085439430064E-009
 prey           3           6           6   3.1669418905533759E-008
 pred           3           6           7   6.0442474238576483E-008
 pred           3           6           8   8.1016778929952780E-008
 mort           3           1   1.5112934972033161E-007   1.6534391534391535E-006  0.44345466447482562       0.20611584009180128        0.0000000000000000        0.0000000000000000       0.44345466447482562        4.2483739536748999E-002
 mort           3           2   1.5098477191544911E-007   1.6534391534391535E-006  0.44345466447482562       0.20591865949275068        0.0000000000000000        0.0000000000000000       0.44345466447482562        4.2402494327291401E-002
 mort           3           3   1.5072453143027465E-007   1.6534391534391535E-006  0.44345466447482562       0.20556373381930015        0.0000000000000000        0.0000000000000000       0.44345466447482562        4.2256448661732088E-002
 mort           3           4   1.5077946916854511E-007   1.6534391534391535E-006  0.44345466447482562       0.20563865995441100        0.0000000000000000        0.0000000000000000       0.44345466447482562        4.2287258467845874E-002
 mort           3           5   1.4805795025758647E-008   1.6534391534391535E-006  0.44345466447482562        2.0192695102629072E-002   0.0000000000000000        0.0000000000000000       0.44345466447482562        4.0774493550774010E-004
 mort           3           6   1.5088689119586601E-007   1.6534391534391535E-006  0.44345466447482562       0.20578516611914061        0.0000000000000000        0.0000000000000000       0.44345466447482562        4.2347534594682296E-002
 mort           3           7   1.1221421592708930E-007   2.3148148148148148E-007  0.44345466447482562       0.41250735903070712        6.9869699146450722E-008   9.2592592592592583E-007  0.44345466447482562       0.17016232125448871     
 mort           3           8   1.1227879036772676E-007   2.3148148148148148E-007  0.44345466447482562       0.41265363119330500        6.9919258523943071E-008   9.2592592592592583E-007  0.44345466447482562       0.17028301933702020     
 graz           3           7           1   8.9129800215886716E-009   1.3025525955124717E-007  0.17200000000000001       0.29959496274458541       0.75306990036323207     
 graz           3           7           2   9.3223854375200799E-009   1.3025525955124717E-007  0.18000000000000002       0.29942949016533044       0.75306990036323207     
 graz           3           7           3   5.1523209748388365E-008   1.3025525955124717E-007   1.0000000000000000       0.29788108799051732       0.75306990036323207     
 graz           3           7           4   5.1528741848773975E-008   1.3025525955124717E-007   1.0000000000000000       0.29791307179140603       0.75306990036323207     
 graz           3           7           5   6.8730506536139833E-010   1.3025525955124717E-007  0.13500000000000001        2.9434441315263321E-002  0.75306990036323207     
 graz           3           7           6   8.2806374296147021E-009   1.3025525955124717E-007  0.16000000000000003       0.29921530738700047       0.75306990036323207     
 graz           3           8           1   4.3602007639276181E-008   1.5324276697025617E-007  0.85999999999999999       0.29959496274458541       0.90553753486292854     
 graz           3           8           2   4.5604805584493660E-008   1.5324276697025617E-007  0.90000000000000002       0.29942949016533044       0.90553753486292854     
 graz           3           8           3   1.0081994482688558E-008   1.5324276697025617E-007  0.20000000000000001       0.29788108799051732       0.90553753486292854     
 graz           3           8           4   1.0083076996876587E-008   1.5324276697025617E-007  0.20000000000000001       0.29791307179140603       0.90553753486292854     
 graz           3           8           5   3.3622739687303095E-009   1.5324276697025617E-007  0.67500000000000004        2.9434441315263321E-002  0.90553753486292854     
 graz           3           8           6   4.0508608298190885E-008   1.5324276697025617E-007  0.80000000000000004       0.29921530738700047       0.90553753486292854     
 prey           3           7           1   5.2514987660864856E-008
 prey           3           7           2   5.4927191022013742E-008
 prey           3           7           3   6.1605204231076928E-008
 prey           3           7           4   6.1611818845650561E-008
 prey           3           7           5   4.0495790340917076E-009
 prey           3           7           6   4.8789245727805585E-008
 pred           3           7           7   9.3322884459363805E-008
 pred           3           7           8   1.2461072072416147E-007
 mort           3           1   2.1812996527816293E-007   1.6534391534391535E-006  0.44034452980006666       0.29959496274458541        0.0000000000000000        0.0000000000000000       0.44034452980006666        8.9757141701929527E-002
 mort           3           2   2.1800948752501013E-007   1.6534391534391535E-006  0.44034452980006666       0.29942949016533044        0.0000000000000000        0.0000000000000000       0.44034452980006666        8.9658019580669712E-002
 mort           3           3   2.1688212239999446E-007   1.6534391534391535E-006  0.44034452980006666       0.29788108799051732        0.0000000000000000        0.0000000000000000       0.44034452980006666        8.8733142582414326E-002
 mort           3           4   2.1690540925806913E-007   1.6534391534391535E-006  0.44034452980006666       0.29791307179140603        0.0000000000000000        0.0000000000000000       0.44034452980006666        8.8752198344191444E-002
 mort           3           5   2.1430712997515351E-008   1.6534391534391535E-006  0.44034452980006666        2.9434441315263321E-002   0.0000000000000000        0.0000000000000000       0.44034452980006666        8.6638633554168040E-004
 mort           3           6   2.1785354470950918E-007   1.6534391534391535E-006  0.44034452980006666       0.29921530738700047        0.0000000000000000        0.0000000000000000       0.44034452980006666        8.9529800174697180E-002
 mort           3           7   1.3238503650785753E-007   2.3148148148148148E-007  0.44034452980006666       0.45836596527675638        8.5663058393008692E-008   9.2592592592592583E-007  0.44034452980006666       0.21009935812409264     
 mort           3           8   1.3249041375020393E-007   2.3148148148148148E-007  0.44034452980006666       0.45858744015076014        8.5745860346175537E-008   9.2592592592592583E-007  0.44034452980006666       0.21030244026402700     
 graz           3           7           1   4.3370373997410988E-009   6.3241226694226248E-008  0.17200000000000001       0.19561198003560964       0.49060392026493266     
 graz           3           7           2   4.5377470443194086E-009   6.3241226694226248E-008  0.18000000000000002       0.19556832056525153       0.49060392026493266     
 graz           3           7           3   2.5006364799432858E-008   6.3241226694226248E-008   1.0000000000000000       0.19399087025136458       0.49060392026493266     
 graz           3           7           4   2.4991737369877681E-008   6.3241226694226248E-008   1.0000000000000000       0.19387739562953493       0.49060392026493266     
 graz           3           7           5   3.3662591106358732E-010   6.3241226694226248E-008  0.13500000000000001        1.9343920655623497E-002  0.49060392026493266     
 graz           3           7           6   4.0317141697916106E-009   6.3241226694226248E-008  0.16000000000000003       0.19547916767283646       0.49060392026493266     
 graz           3           8           1   2.1361230970031732E-008   7.5076659957123949E-008  0.85999999999999999       0.19561198003560964       0.59125192509634561     
 graz           3           8           2   2.2349787138813248E-008   7.5076659957123949E-008  0.90000000000000002       0.19556832056525153       0.59125192509634561     
 graz           3           8           3   4.9265587078722787E-009   7.5076659957123949E-008  0.20000000000000001       0.19399087025136458       0.59125192509634561     
 graz           3           8           4   4.9236769259328868E-009   7.5076659957123949E-008  0.20000000000000001       0.19387739562953493       0.59125192509634561     
 graz           3           8           5   1.6579852037143841E-009   7.5076659957123949E-008  0.67500000000000004        1.9343920655623497E-002  0.59125192509634561     
 graz           3           8           6   1.9857421010759418E-008   7.5076659957123949E-008  0.80000000000000004       0.19547916767283646       0.59125192509634561     
 prey           3           8           1   2.5698268369772831E-008
 prey           3           8           2   2.6887534183132658E-008
 prey           3           8           3   2.9932923507305138E-008
 prey           3           8           4   2.9915414295810567E-008
 prey           3           8           5   1.9946111147779716E-009
 prey           3           8           6   2.3889135180551028E-008
 pred           3           8           7   4.5295731545414713E-008
 pred           3           8           8   6.1046351529079681E-008
 mort           3           1   1.4141687779478836E-007   1.6534391534391535E-006  0.43723767672469815       0.19561198003560964        0.0000000000000000        0.0000000000000000       0.43723767672469815        3.8264046733451747E-002
 mort           3           2   1.4138531435995633E-007   1.6534391534391535E-006  0.43723767672469815       0.19556832056525153        0.0000000000000000        0.0000000000000000       0.43723767672469815        3.8246968008712988E-002
 mort           3           3   1.4024490313245537E-007   1.6534391534391535E-006  0.43723767672469815       0.19399087025136458        0.0000000000000000        0.0000000000000000       0.43723767672469815        3.7632457740881767E-002
 mort           3           4   1.4016286712052414E-007   1.6534391534391535E-006  0.43723767672469815       0.19387739562953493        0.0000000000000000        0.0000000000000000       0.43723767672469815        3.7588444536091212E-002
 mort           3           5   1.3984608012916200E-008   1.6534391534391535E-006  0.43723767672469815        1.9343920655623497E-002   0.0000000000000000        0.0000000000000000       0.43723767672469815        3.7418726633105736E-004
 mort           3           6   1.4132086164244169E-007   1.6534391534391535E-006  0.43723767672469815       0.19547916767283646        0.0000000000000000        0.0000000000000000       0.43723767672469815        3.8212104994064910E-002
 mort           3           7   7.7731249278138462E-008   2.3148148148148148E-007  0.43723767672469815       0.33065915296016968        4.4264434503124294E-008   9.2592592592592583E-007  0.43723767672469815       0.10933547543633688     
 mort           3           8   7.7772246940070790E-008   2.3148148148148148E-007  0.43723767672469815       0.33077026016643890        4.4294186735256500E-008   9.2592592592592583E-007  0.43723767672469815       0.10940896501057368     
 graz           3           7           1   1.2875442969045628E-009   1.8771427981737322E-008  0.17200000000000001        9.1827940270656008E-002  0.23027056259199327     
 graz           3           7           2   1.3473522749857529E-009   1.8771427981737322E-008  0.18000000000000002        9.1822637951091954E-002  0.23027056259199327     
 graz           3           7           3   7.4212147991963019E-009   1.8771427981737322E-008   1.0000000000000000        9.1036617384118626E-002  0.23027056259199327     
 graz           3           7           4   7.4177147191996394E-009   1.8771427981737322E-008   1.0000000000000000        9.0993681631402715E-002  0.23027056259199327     
 graz           3           7           5   1.0018673060089890E-010   1.8771427981737322E-008  0.13500000000000001        9.1036917983627810E-003  0.23027056259199327     
 graz           3           7           6   1.1974151608501656E-009   1.8771427981737322E-008  0.16000000000000003        9.1804903912147170E-002  0.23027056259199327     
 graz           3           8           1   6.3902500438247873E-009   2.2463403664986065E-008  0.85999999999999999        9.1827940270656008E-002  0.27760737768546379     
 graz           3           8           2   6.6870848288284805E-009   2.2463403664986065E-008  0.90000000000000002        9.1822637951091954E-002  0.27760737768546379     
 graz           3           8           3   1.4732982254609765E-009   2.2463403664986065E-008  0.20000000000000001        9.1036617384118626E-002  0.27760737768546379     
 graz           3           8           4   1.4726033713450964E-009   2.2463403664986065E-008  0.20000000000000001        9.0993681631402715E-002  0.27760737768546379     
 graz           3           8           5   4.9723979295487612E-010   2.2463403664986065E-008  0.67500000000000004        9.1036917983627810E-003  0.27760737768546379     
 graz           3           8           6   5.9429274025718516E-009   2.2463403664986065E-008  0.80000000000000004        9.1804903912147170E-002  0.27760737768546379     
 prey           3           9           1   7.6777943407293509E-009
 prey           3           9           2   8.0344371038142337E-009
 prey           3           9           3   8.8945130246572778E-009
 prey           3           9           4   8.8903180905447360E-009
 prey           3           9           5   5.9742652355577502E-010
 prey           3           9           6   7.1403425634220168E-009
 pred           3           9           7   1.3444143000053304E-008
 pred           3           9           8   1.8265313091669461E-008
 mort           3           1   6.5681705819092567E-008   1.6534391534391535E-006  0.43259486777447886        9.1827940270656008E-002   0.0000000000000000        0.0000000000000000       0.43259486777447886        8.4323706143511670E-003
 mort           3           2   6.5677913232732258E-008   1.6534391534391535E-006  0.43259486777447886        9.1822637951091954E-002   0.0000000000000000        0.0000000000000000       0.43259486777447886        8.4313968402973116E-003
 mort           3           3   6.5115696858331051E-008   1.6534391534391535E-006  0.43259486777447886        9.1036617384118626E-002   0.0000000000000000        0.0000000000000000       0.43259486777447886        8.2876657047424099E-003
 mort           3           4   6.5084986232886381E-008   1.6534391534391535E-006  0.43259486777447886        9.0993681631402715E-002   0.0000000000000000        0.0000000000000000       0.43259486777447886        8.2798500968370766E-003
 mort           3           5   6.5115911867929136E-009   1.6534391534391535E-006  0.43259486777447886        9.1036917983627792E-003   0.0000000000000000        0.0000000000000000       0.43259486777447886        8.2877204359577735E-005
 mort           3           6   6.5665228619252718E-008   1.6534391534391535E-006  0.43259486777447886        9.1804903912147170E-002   0.0000000000000000        0.0000000000000000       0.43259486777447886        8.4281403823185750E-003
 mort           3           7   3.6801370851382890E-008   2.3148148148148148E-007  0.43259486777447886       0.20287484169746067        1.6485950638678873E-008   9.2592592592592583E-007  0.43259486777447886        4.1158201393769731E-002
 mort           3           8   3.6810317660457816E-008   2.3148148148148148E-007  0.43259486777447886       0.20290890211092094        1.6491486716259085E-008   9.2592592592592583E-007  0.43259486777447886        4.1172022555859299E-002
 graz           3           7           1   6.3558067619763252E-010   9.2925246584004285E-009  0.17200000000000001        5.6399458651804846E-002  0.14182945035549033     
 graz           3           7           2   6.6511992180382752E-010   9.2925246584004285E-009  0.18000000000000002        5.6397538402396329E-002  0.14182945035549033     
 graz           3           7           3   3.6759646057788236E-009   9.2925246584004285E-009   1.0000000000000000        5.6105316771211208E-002  0.14182945035549033     
 graz           3           7           4   3.6750174744109469E-009   9.2925246584004285E-009   1.0000000000000000        5.6090860945022039E-002  0.14182945035549033     
 graz           3           7           5   4.9662270934810606E-011   9.2925246584004285E-009  0.13500000000000001        5.6146863954001924E-003  0.14182945035549033     
 graz           3           7           6   5.9117970927438566E-010   9.2925246584004285E-009  0.16000000000000003        5.6393913595851601E-002  0.14182945035549033     
 graz           3           8           1   3.1634151071817301E-009   1.1126948471845751E-008  0.85999999999999999        5.6399458651804846E-002  0.17060559873953193     
 graz           3           8           2   3.3104379782426061E-009   1.1126948471845751E-008  0.90000000000000002        5.6397538402396329E-002  0.17060559873953193     
 graz           3           8           3   7.3184112751534786E-010   1.1126948471845751E-008  0.20000000000000001        5.6105316771211208E-002  0.17060559873953193     
 graz           3           8           4   7.3165256484880793E-010   1.1126948471845751E-008  0.20000000000000001        5.6090860945022039E-002  0.17060559873953193     
 graz           3           8           5   2.4717928662022657E-010   1.1126948471845751E-008  0.67500000000000004        5.6146863954001924E-003  0.17060559873953193     
 graz           3           8           6   2.9424224074370322E-009   1.1126948471845751E-008  0.80000000000000004        5.6393913595851601E-002  0.17060559873953193     
 prey           3          10           1   3.7989957833793625E-009
 prey           3          10           2   3.9755579000464338E-009
 prey           3          10           3   4.4078057332941716E-009
 prey           3          10           4   4.4066700392597546E-009
 prey           3          10           5   2.9684155755503718E-010
 prey           3          10           6   3.5336021167114180E-009
 pred           3          10           7   6.6574026954360796E-009
 pred           3          10           8   9.0479081467130182E-009
 mort           3           1   3.9910426117257611E-008   1.6534391534391535E-006  0.42797974116627380        5.6399458651804846E-002   0.0000000000000000        0.0000000000000000       0.42797974116627380        3.1808989362166443E-003
 mort           3           2   3.9909067274921578E-008   1.6534391534391535E-006  0.42797974116627380        5.6397538402396329E-002   0.0000000000000000        0.0000000000000000       0.42797974116627380        3.1806823378497688E-003
 mort           3           3   3.9702280009581303E-008   1.6534391534391535E-006  0.42797974116627380        5.6105316771211208E-002   0.0000000000000000        0.0000000000000000       0.42797974116627380        3.1478065699979537E-003
 mort           3           4   3.9692050510985435E-008   1.6534391534391535E-006  0.42797974116627380        5.6090860945022039E-002   0.0000000000000000        0.0000000000000000       0.42797974116627380        3.1461846815537989E-003
 mort           3           5   3.9731680394067016E-009   1.6534391534391535E-006  0.42797974116627380        5.6146863954001916E-003   0.0000000000000000        0.0000000000000000       0.42797974116627380        3.1524703318691994E-005
 mort           3           6   3.9906502222397118E-008   1.6534391534391535E-006  0.42797974116627380        5.6393913595851601E-002   0.0000000000000000        0.0000000000000000       0.42797974116627380        3.1802734906563762E-003
 mort           3           7   2.6557203347249494E-008   2.3148148148148148E-007  0.42797974116627380       0.16247465266045974        1.0460939506577317E-008   9.2592592592592583E-007  0.42797974116627380        2.6398012757137036E-002
 mort           3           8   2.6561084132360736E-008   2.3148148148148148E-007  0.42797974116627380       0.16249168513388912        1.0463132895028899E-008   9.2592592592592583E-007  0.42797974116627380        2.6403547737650961E-002
 graz           3           7           1   4.5877936383911328E-010   6.7202551944816253E-009  0.17200000000000001        4.3954626450352460E-002  0.11074265488198307     
 graz           3           7           2   4.8010475580040737E-010   6.7202551944816253E-009  0.18000000000000002        4.3953419542148174E-002  0.11074265488198307     
 graz           3           7           3   2.6595004897925221E-009   6.7202551944816253E-009   1.0000000000000000        4.3825738216222064E-002  0.11074265488198307     
 graz           3           7           4   2.6591764632436720E-009   6.7202551944816253E-009   1.0000000000000000        4.3820398603479173E-002  0.11074265488198307     
 graz           3           7           5   3.5935404391747565E-011   6.7202551944816253E-009  0.13500000000000001        4.3864979786588341E-003  0.11074265488198307     
 graz           3           7           6   4.2675871741416218E-010   6.7202551944816253E-009  0.16000000000000003        4.3953309800722318E-002  0.11074265488198307     
 graz           3           8           1   2.2857544210070102E-009   8.0429756152623162E-009  0.85999999999999999        4.3954626450352460E-002  0.13301181767534928     
 graz           3           8           2   2.3920028985918244E-009   8.0429756152623162E-009  0.90000000000000002        4.3953419542148174E-002  0.13301181767534928     
 graz           3           8           3   5.3001206953548725E-010   8.0429756152623162E-009  0.20000000000000001        4.3825738216222064E-002  0.13301181767534928     
 graz           3           8           4   5.2994749425813740E-010   8.0429756152623162E-009  0.20000000000000001        4.3820398603479173E-002  0.13301181767534928     
 graz           3           8           5   1.7903924180843668E-010   8.0429756152623162E-009  0.67500000000000004        4.3864979786588341E-003  0.13301181767534928     
 graz           3           8           6   2.1262194900614208E-009   8.0429756152623162E-009  0.80000000000000004        4.3953309800722318E-002  0.13301181767534928     
 prey           3          11           1   2.7445337848461234E-009
 prey           3          11           2   2.8721076543922319E-009
 prey           3          11           3   3.1895125593280091E-009
 prey           3          11           4   3.1891239575018096E-009
 prey           3          11           5   2.1497464620018424E-010
 prey           3          11           6   2.5529782074755830E-009
 pred           3          11           7   4.8155728590071277E-009
 pred           3          11           8   6.5403764485892164E-009
 mort           3           1   3.0783290364375401E-008   1.6534391534391535E-006  0.42356710808140535        4.3954626450352460E-002   0.0000000000000000        0.0000000000000000       0.42356710808140535        1.9320091863900242E-003
 mort           3           2   3.0782445115338012E-008   1.6534391534391535E-006  0.42356710808140535        4.3953419542148174E-002   0.0000000000000000        0.0000000000000000       0.42356710808140535        1.9319030894480930E-003
 mort           3           3   3.0693024463918499E-008   1.6534391534391535E-006  0.42356710808140535        4.3825738216222064E-002   0.0000000000000000        0.0000000000000000       0.42356710808140535        1.9206953301968272E-003
 mort           3           4   3.0689284906498223E-008   1.6534391534391535E-006  0.42356710808140535        4.3820398603479173E-002   0.0000000000000000        0.0000000000000000       0.42356710808140535        1.9202273337677995E-003
 mort           3           5   3.0720507001082215E-009   1.6534391534391535E-006  0.42356710808140535        4.3864979786588333E-003   0.0000000000000000        0.0000000000000000       0.42356710808140535        1.9241364516778030E-005
 mort           3           6   3.0782368258759998E-008   1.6534391534391535E-006  0.42356710808140535        4.3953309800722318E-002   0.0000000000000000        0.0000000000000000       0.42356710808140535        1.9318934424382725E-003
 mort           3           7   2.3808619167749270E-008   2.3148148148148148E-007  0.42356710808140535       0.15128169624013144        8.9757602367117530E-009   9.2592592592592583E-007  0.42356710808140535        2.2886151617291399E-002
 mort           3           8   2.3811298320770732E-008   2.3148148148148148E-007  0.42356710808140535       0.15129405876622437        8.9772272694957690E-009   9.2592592592592583E-007  0.42356710808140535        2.2889892217957754E-002
 graz           3           7           1   3.0513957951731109E-010   4.4703454486558478E-009  0.17200000000000001        3.1719519460771756E-002   7.9927749998352352E-002
 graz           3           7           2   3.1932485440184291E-010   4.4703454486558478E-009  0.18000000000000002        3.1718797951764362E-002   7.9927749998352352E-002
 graz           3           7           3   1.7691144074748996E-009   4.4703454486558478E-009   1.0000000000000000        3.1630963580600656E-002   7.9927749998352352E-002
 graz           3           7           4   1.7690129205682204E-009   4.4703454486558478E-009   1.0000000000000000        3.1629149040718153E-002   7.9927749998352352E-002
 graz           3           7           5   2.3902684855042797E-011   4.4703454486558478E-009  0.13500000000000001        3.1656975478967495E-003   7.9927749998352352E-002
 graz           3           7           6   2.8385100183853099E-010   4.4703454486558478E-009  0.16000000000000003        3.1719545184357198E-002   7.9927749998352352E-002
 graz           3           8           1   1.5217675431481586E-009   5.3548857048352427E-009  0.85999999999999999        3.1719519460771756E-002   9.5990209409431454E-002
 graz           3           8           2   1.5925112039477915E-009   5.3548857048352427E-009  0.90000000000000002        3.1718797951764362E-002   9.5990209409431454E-002
 graz           3           8           3   3.5291139742274655E-010   5.3548857048352427E-009  0.20000000000000001        3.1630963580600656E-002   9.5990209409431454E-002
 graz           3           8           4   3.5289115232954917E-010   5.3548857048352427E-009  0.20000000000000001        3.1629149040718153E-002   9.5990209409431454E-002
 graz           3           8           5   1.1920554542299093E-010   5.3548857048352427E-009  0.67500000000000004        3.1656975478967495E-003   9.5990209409431454E-002
 graz           3           8           6   1.4155988625640064E-009   5.3548857048352427E-009  0.80000000000000004        3.1719545184357198E-002   9.5990209409431454E-002
 prey           3          12           1   1.8269071226654698E-009
 prey           3          12           2   1.9118360583496346E-009
 prey           3          12           3   2.1220258048976461E-009
 prey           3          12           4   2.1219040728977696E-009
 prey           3          12           5   1.4310823027803371E-010
 prey           3          12           6   1.6994498644025374E-009
 pred           3          12           7   3.2033891106795872E-009
 pred           3          12           8   4.3544888188434241E-009
 mort           3           1   2.1993488709748074E-008   1.6534391534391535E-006  0.41935256894752460        3.1719519460771756E-002   0.0000000000000000        0.0000000000000000       0.41935256894752460        1.0061279148222782E-003
 mort           3           2   2.1992988434192900E-008   1.6534391534391535E-006  0.41935256894752460        3.1718797951764362E-002   0.0000000000000000        0.0000000000000000       0.41935256894752460        1.0060821435048512E-003
 mort           3           3   2.1932086368734256E-008   1.6534391534391535E-006  0.41935256894752460        3.1630963580600656E-002   0.0000000000000000        0.0000000000000000       0.41935256894752460        1.0005178570372851E-003
 mort           3           4   2.1930828214036528E-008   1.6534391534391535E-006  0.41935256894752460        3.1629149040718153E-002   0.0000000000000000        0.0000000000000000       0.41935256894752460        1.0004030690399621E-003
 mort           3           5   2.1950122341623357E-009   1.6534391534391535E-006  0.41935256894752460        3.1656975478967482E-003   0.0000000000000000        0.0000000000000000       0.41935256894752460        1.0021640964759485E-005
 mort           3           6   2.1993506545812295E-008   1.6534391534391535E-006  0.41935256894752460        3.1719545184357198E-002   0.0000000000000000        0.0000000000000000       0.41935256894752460        1.0061295467024779E-003
 mort           3           7   2.1225720170834638E-008   2.3148148148148148E-007  0.41935256894752460       0.14012202671899757        7.6237452007547055E-009   9.2592592592592583E-007  0.41935256894752460        1.9634182371839469E-002
 mort           3           8   2.1227420865006566E-008   2.3148148148148148E-007  0.41935256894752460       0.14013028687213636        7.6246440624176853E-009   9.2592592592592583E-007  0.41935256894752460        1.9636497298867232E-002
 graz           3           7           1   2.1900571614050018E-010   3.2105577727567687E-009  0.17200000000000001        2.4667134102730803E-002   6.2197392878951513E-002
 graz           3           7           2   2.2918753767367942E-010   3.2105577727567687E-009  0.18000000000000002        2.4666650768787504E-002   6.2197392878951513E-002
 graz           3           7           3   1.2707514280833306E-009   3.2105577727567687E-009   1.0000000000000000        2.4617973392243791E-002   6.2197392878951513E-002
 graz           3           7           4   1.2707172437060994E-009   3.2105577727567687E-009   1.0000000000000000        2.4617311146213201E-002   6.2197392878951513E-002
 graz           3           7           5   1.7166768000107022E-011   3.2105577727567687E-009  0.13500000000000001        2.4634653663140921E-003   6.2197392878951513E-002
 graz           3           7           6   2.0372907915305209E-010   3.2105577727567687E-009  0.16000000000000003        2.4667476949941675E-002   6.2197392878951513E-002
 graz           3           8           1   1.0928324047862531E-009   3.8460102269534661E-009  0.85999999999999999        2.4667134102730803E-002   7.4657598610163994E-002
 graz           3           8           2   1.1436394097690378E-009   3.8460102269534661E-009  0.90000000000000002        2.4666650768787504E-002   7.4657598610163994E-002
 graz           3           8           3   2.5364056491511080E-010   3.8460102269534661E-009  0.20000000000000001        2.4617973392243791E-002   7.4657598610163994E-002
 graz           3           8           4   2.5363374175161822E-010   3.8460102269534661E-009  0.20000000000000001        2.4617311146213201E-002   7.4657598610163994E-002
 graz           3           8           5   8.5661692701797660E-011   3.8460102269534661E-009  0.67500000000000004        2.4634653663140921E-003   7.4657598610163994E-002
 graz           3           8           6   1.0166024130296486E-009   3.8460102269534661E-009  0.80000000000000004        2.4667476949941675E-002   7.4657598610163994E-002
 prey           3          13           1   1.3118381209267533E-009
 prey           3          13           2   1.3728269474427171E-009
 prey           3          13           3   1.5243919929984415E-009
 prey           3          13           4   1.5243509854577177E-009
 prey           3          13           5   1.0282846070190469E-010
 prey           3          13           6   1.2203314921827008E-009
 pred           3          13           7   2.3008105778184796E-009
 pred           3          13           8   3.1275356122294460E-009
 mort           3           1   1.6933622594489634E-008   1.6534391534391535E-006  0.41518625157243289        2.4667134102730803E-002   0.0000000000000000        0.0000000000000000       0.41518625157243289        6.0846750484210498E-004
 mort           3           2   1.6933290792888815E-008   1.6534391534391535E-006  0.41518625157243289        2.4666650768787504E-002   0.0000000000000000        0.0000000000000000       0.41518625157243289        6.0844366014932514E-004
 mort           3           3   1.6899874494106464E-008   1.6534391534391535E-006  0.41518625157243289        2.4617973392243791E-002   0.0000000000000000        0.0000000000000000       0.41518625157243289        6.0604461394122330E-004
 mort           3           4   1.6899419872004848E-008   1.6534391534391535E-006  0.41518625157243289        2.4617311146213201E-002   0.0000000000000000        0.0000000000000000       0.41518625157243289        6.0601200806947267E-004
 mort           3           5   1.6911325253281375E-009   1.6534391534391535E-006  0.41518625157243289        2.4634653663140908E-003   0.0000000000000000        0.0000000000000000       0.41518625157243289        6.0686616110290174E-006
 mort           3           6   1.6933857954027240E-008   1.6534391534391535E-006  0.41518625157243289        2.4667476949941675E-002   0.0000000000000000        0.0000000000000000       0.41518625157243289        6.0848441907590382E-004
 mort           3           7   1.9037700286060167E-008   2.3148148148148148E-007  0.41518625157243289       0.13023845604869816        6.5207520505416375E-009   9.2592592592592583E-007  0.41518625157243289        1.6962055433948683E-002
 mort           3           8   1.9038867094926632E-008   2.3148148148148148E-007  0.41518625157243289       0.13024440169882348        6.5213474352903506E-009   9.2592592592592583E-007  0.41518625157243289        1.6963604173884494E-002
 graz           3           7           1   1.5840334619266861E-010   2.3236384556687287E-009  0.17200000000000001        1.9343318006739271E-002   4.8804921926808853E-002
 graz           3           7           2   1.6576821133523169E-010   2.3236384556687287E-009  0.18000000000000002        1.9342999176393892E-002   4.8804921926808853E-002
 graz           3           7           3   9.1984586689287862E-010   2.3236384556687287E-009   1.0000000000000000        1.9320133736332411E-002   4.8804921926808853E-002
 graz           3           7           4   9.1984584995447157E-010   2.3236384556687287E-009   1.0000000000000000        1.9320133380563796E-002   4.8804921926808853E-002
 graz           3           7           5   1.2419592763628350E-011   2.3236384556687287E-009  0.13500000000000001        1.9322737507027504E-003   4.8804921926808853E-002
 graz           3           7           6   1.4735558852985045E-010   2.3236384556687287E-009  0.16000000000000003        1.9343795654110808E-002   4.8804921926808853E-002
 graz           3           8           1   7.9077088112646691E-010   2.7832870028964400E-009  0.85999999999999999        1.9343318006739271E-002   5.8551327472942519E-002
 graz           3           8           2   8.2753728182534153E-010   2.7832870028964400E-009  0.90000000000000002        1.9342999176393892E-002   5.8551327472942519E-002
 graz           3           8           3   1.8367978812232601E-010   2.7832870028964400E-009  0.20000000000000001        1.9320133736332411E-002   5.8551327472942519E-002
 graz           3           8           4   1.8367978473997345E-010   2.7832870028964400E-009  0.20000000000000001        1.9320133380563796E-002   5.8551327472942519E-002
 graz           3           8           5   6.2000283131524103E-011   2.7832870028964400E-009  0.67500000000000004        1.9322737507027504E-003   5.8551327472942519E-002
 graz           3           8           6   7.3561898395080795E-010   2.7832870028964400E-009  0.80000000000000004        1.9343795654110808E-002   5.8551327472942519E-002
 prey           3          14           1   9.4917422731913552E-010
 prey           3          14           2   9.9330549316057329E-010
 prey           3          14           3   1.1035256550152046E-009
 prey           3          14           4   1.1035256346944450E-009
 prey           3          14           5   7.4419875895152446E-011
 prey           3          14           6   8.8297457248065840E-010
 pred           3          14           7   1.6653320690064320E-009
 pred           3          14           8   2.2633655596033821E-009
 mort           3           1   1.3177684993318074E-008   1.6534391534391535E-006  0.41202155086226916        1.9343318006739271E-002   0.0000000000000000        0.0000000000000000       0.41202155086226916        3.7416395150984368E-004
 mort           3           2   1.3177467789327722E-008   1.6534391534391535E-006  0.41202155086226916        1.9342999176393892E-002   0.0000000000000000        0.0000000000000000       0.41202155086226916        3.7415161713797481E-004
 mort           3           3   1.3161890649652989E-008   1.6534391534391535E-006  0.41202155086226916        1.9320133736332411E-002   0.0000000000000000        0.0000000000000000       0.41202155086226916        3.7326756758976977E-004
 mort           3           4   1.3161890407284705E-008   1.6534391534391535E-006  0.41202155086226916        1.9320133380563796E-002   0.0000000000000000        0.0000000000000000       0.41202155086226916        3.7326755384277545E-004
 mort           3           5   1.3163664475115748E-009   1.6534391534391535E-006  0.41202155086226916        1.9322737507027491E-003   0.0000000000000000        0.0000000000000000       0.41202155086226916        3.7336818476548698E-006
 mort           3           6   1.3178010391814746E-008   1.6534391534391535E-006  0.41202155086226916        1.9343795654110808E-002   0.0000000000000000        0.0000000000000000       0.41202155086226916        3.7418243030799619E-004
 mort           3           7   1.7084882915972025E-008   2.3148148148148148E-007  0.41202155086226916       0.12078094493070149        5.5653569333428673E-009   9.2592592592592583E-007  0.41202155086226916        1.4588036658353145E-002
 mort           3           8   1.7085691749687367E-008   2.3148148148148148E-007  0.41202155086226916       0.12078525794654288        5.5657544116239840E-009   9.2592592592592583E-007  0.41202155086226916        1.4589078537212899E-002
 graz           3           7           1   9.3831655599213493E-011   1.3761108665733008E-009  0.17200000000000001        1.2763807766546592E-002   3.2196802732804876E-002
 graz           3           7           2   9.8194465561711158E-011   1.3761108665733008E-009  0.18000000000000002        1.2763618889613849E-002   3.2196802732804876E-002
 graz           3           7           3   5.4472146027282303E-010   1.3761108665733008E-009   1.0000000000000000        1.2744822983922922E-002   3.2196802732804876E-002
 graz           3           7           4   5.4472146026894035E-010   1.3761108665733008E-009   1.0000000000000000        1.2744822983832078E-002   3.2196802732804876E-002
 graz           3           7           5   7.3546263802020549E-012   1.3761108665733008E-009  0.13500000000000001        1.2746359672501752E-003   3.2196802732804876E-002
 graz           3           7           6   8.7287198490410545E-011   1.3761108665733008E-009  0.16000000000000003        1.2764091084341208E-002   3.2196802732804876E-002
 graz           3           8           1   4.6866921588578627E-010   1.6495070333214071E-009  0.85999999999999999        1.2763807766546592E-002   3.8633713018800371E-002
 graz           3           8           2   4.9046052619705416E-010   1.6495070333214071E-009  0.90000000000000002        1.2763618889613849E-002   3.8633713018800371E-002
 graz           3           8           3   1.0883072584914058E-010   1.6495070333214071E-009  0.20000000000000001        1.2744822983922922E-002   3.8633713018800371E-002
 graz           3           8           4   1.0883072584836484E-010   1.6495070333214071E-009  0.20000000000000001        1.2744822983832078E-002   3.8633713018800371E-002
 graz           3           8           5   3.6734798685264902E-011   1.6495070333214071E-009  0.67500000000000004        1.2746359672501752E-003   3.8633713018800371E-002
 graz           3           8           6   4.3598104085579621E-010   1.6495070333214071E-009  0.80000000000000004        1.2764091084341208E-002   3.8633713018800371E-002
 prey           3          15           1   5.6250087148499974E-010
 prey           3          15           2   5.8865499175876530E-010
 prey           3          15           3   6.5355218612196358E-010
 prey           3          15           4   6.5355218611730521E-010
 prey           3          15           5   4.4089425065466955E-011
 prey           3          15           6   5.2326823934620679E-010
 pred           3          15           7   9.8622151484602566E-010
 pred           3          15           8   1.3413717718268761E-009
 mort           3           1   8.6289905691185115E-009   1.6534391534391535E-006  0.40887590847937783        1.2763807766546590E-002   0.0000000000000000        0.0000000000000000       0.40887590847937783        1.6291478870135507E-004
 mort           3           2   8.6288628785969068E-009   1.6534391534391535E-006  0.40887590847937783        1.2763618889613847E-002   0.0000000000000000        0.0000000000000000       0.40887590847937783        1.6290996715930740E-004
 mort           3           3   8.6161558795640522E-009   1.6534391534391535E-006  0.40887590847937783        1.2744822983922920E-002   0.0000000000000000        0.0000000000000000       0.40887590847937783        1.6243051289152992E-004
 mort           3           4   8.6161558795026374E-009   1.6534391534391535E-006  0.40887590847937783        1.2744822983832076E-002   0.0000000000000000        0.0000000000000000       0.40887590847937783        1.6243051288921434E-004
 mort           3           5   8.6171947600844146E-010   1.6534391534391535E-006  0.40887590847937783        1.2746359672501739E-003   0.0000000000000000        0.0000000000000000       0.40887590847937783        1.6246968490077866E-006
 mort           3           6   8.6291821065203993E-009   1.6534391534391535E-006  0.40887590847937783        1.2764091084341206E-002   0.0000000000000000        0.0000000000000000       0.40887590847937783        1.6292202120935867E-004
 mort           3           7   1.4807536905750605E-008   2.3148148148148148E-007  0.40887590847937783       0.10896036685034820        4.4947431594120861E-009   9.2592592592592583E-007  0.40887590847937783        1.1872361544162458E-002
 mort           3           8   1.4807990380619686E-008   2.3148148148148148E-007  0.40887590847937783       0.10896292667839018        4.4949543537218572E-009   9.2592592592592583E-007  0.40887590847937783        1.1872919390320234E-002
 graz           3           7           1   4.0189707017585599E-011   5.8868930199197142E-010  0.17200000000000001        6.1691594472025003E-003   1.5542674266548227E-002
 graz           3           7           2   4.2058444332260831E-011   5.8868930199197142E-010  0.18000000000000002        6.1690785709327149E-003   1.5542674266548227E-002
 graz           3           7           3   2.3295470856471611E-010   5.8868930199197142E-010   1.0000000000000000        6.1505095163584857E-003   1.5542674266548227E-002
 graz           3           7           4   2.3295470856471539E-010   5.8868930199197142E-010   1.0000000000000000        6.1505095163584675E-003   1.5542674266548227E-002
 graz           3           7           5   3.1452243584022853E-012   5.8868930199197142E-010  0.13500000000000001        6.1511662317356177E-004   1.5542674266548227E-002
 graz           3           7           6   3.7386509154291176E-011   5.8868930199197142E-010  0.16000000000000003        6.1692807626007699E-003   1.5542674266548227E-002
 graz           3           8           1   2.0084646922655263E-010   7.0672216671421771E-010  0.85999999999999999        6.1691594472025003E-003   1.8668479975699759E-002
 graz           3           8           2   2.1018540995085795E-010   7.0672216671421771E-010  0.90000000000000002        6.1690785709327149E-003   1.8668479975699759E-002
 graz           3           8           3   4.6567277222947611E-011   7.0672216671421771E-010  0.20000000000000001        6.1505095163584857E-003   1.8668479975699759E-002
 graz           3           8           4   4.6567277222947469E-011   7.0672216671421771E-010  0.20000000000000001        6.1505095163584675E-003   1.8668479975699759E-002
 graz           3           8           5   1.5718134173857885E-011   7.0672216671421771E-010  0.67500000000000004        6.1511662317356177E-004   1.8668479975699759E-002
 graz           3           8           6   1.8683759891705406E-010   7.0672216671421771E-010  0.80000000000000004        6.1692807626007699E-003   1.8668479975699759E-002
 prey           3          16           1   2.4103617624413821E-010
 prey           3          16           2   2.5224385428311876E-010
 prey           3          16           3   2.7952198578766375E-010
 prey           3          16           4   2.7952198578766287E-010
 prey           3          16           5   1.8863358532260170E-011
 prey           3          16           6   2.2422410807134525E-010
 pred           3          16           7   4.2183948764856118E-010
 pred           3          16           8   5.7469118881596357E-010
 mort           3           1   4.1353874272380490E-009   1.6534391534391535E-006  0.40541703248207117        6.1691594472024994E-003   0.0000000000000000        0.0000000000000000       0.40541703248207117        3.8058528285007849E-005
 mort           3           2   4.1353332132544276E-009   1.6534391534391535E-006  0.40541703248207117        6.1690785709327140E-003   0.0000000000000000        0.0000000000000000       0.40541703248207117        3.8057530414341218E-005
 mort           3           3   4.1228857744292259E-009   1.6534391534391535E-006  0.40541703248207117        6.1505095163584848E-003   0.0000000000000000        0.0000000000000000       0.40541703248207117        3.7828767310816283E-005
 mort           3           4   4.1228857744292134E-009   1.6534391534391535E-006  0.40541703248207117        6.1505095163584666E-003   0.0000000000000000        0.0000000000000000       0.40541703248207117        3.7828767310816059E-005
 mort           3           5   4.1233259920207895E-010   1.6534391534391535E-006  0.40541703248207117        6.1511662317356058E-004   0.0000000000000000        0.0000000000000000       0.40541703248207117        3.7836846010444413E-007
 mort           3           6   4.1354687488795185E-009   1.6534391534391535E-006  0.40541703248207117        6.1692807626007691E-003   0.0000000000000000        0.0000000000000000       0.40541703248207117        3.8060025127795926E-005
 mort           3           7   1.2653957880178107E-008   2.3148148148148148E-007  0.40541703248207117        9.7112982532472469E-002   3.5402409371692641E-009   9.2592592592592583E-007  0.40541703248207117        9.4309313763523035E-003
 mort           3           8   1.2654141004005252E-008   2.3148148148148148E-007  0.40541703248207117        9.7114080682326326E-002   3.5403210034373870E-009   9.2592592592592583E-007  0.40541703248207117        9.4311446667733872E-003
 graz           3           7           1   3.8930002098909892E-011   5.7156767412965225E-010  0.17200000000000001        6.0290830727417147E-003   1.5225197897646262E-002
 graz           3           7           2   4.0740169834907604E-011   5.7156767412965225E-010  0.18000000000000002        6.0290046344391177E-003   1.5225197897646262E-002
 graz           3           7           3   2.2631364128137804E-010   5.7156767412965225E-010   1.0000000000000000        6.0284549518878228E-003   1.5225197897646262E-002
 graz           3           7           4   2.2631364128137804E-010   5.7156767412965225E-010   1.0000000000000000        6.0284549518878228E-003   1.5225197897646262E-002
 graz           3           7           5   3.0555574717595883E-012   5.7156767412965225E-010  0.13500000000000001        6.0290929018985229E-004   1.5225197897646262E-002
 graz           3           7           6   3.6214662161319005E-011   5.7156767412965225E-010  0.16000000000000003        6.0292007311523073E-003   1.5225197897646262E-002
 graz           3           8           1   1.9455424954908061E-010   6.8489030660739010E-010  0.85999999999999999        6.0290830727417147E-003   1.8252821950108210E-002
 graz           3           8           2   2.0360063553540078E-010   6.8489030660739010E-010  0.90000000000000002        6.0290046344391177E-003   1.8252821950108210E-002
 graz           3           8           3   4.5240460589085104E-011   6.8489030660739010E-010  0.20000000000000001        6.0284549518878228E-003   1.8252821950108210E-002
 graz           3           8           4   4.5240460589085104E-011   6.8489030660739010E-010  0.20000000000000001        6.0284549518878228E-003   1.8252821950108210E-002
 graz           3           8           5   1.5270271225824544E-011   6.8489030660739010E-010  0.67500000000000004        6.0290929018985229E-004   1.8252821950108210E-002
 graz           3           8           6   1.8098422911891381E-010   6.8489030660739010E-010  0.80000000000000004        6.0292007311523073E-003   1.8252821950108210E-002
 prey           3          17           1   2.3348425164799050E-010
 prey           3          17           2   2.4434080537030836E-010
 prey           3          17           3   2.7155410187046317E-010
 prey           3          17           4   2.7155410187046317E-010
 prey           3          17           5   1.8325828697584131E-011
 prey           3          17           6   2.1719889128023281E-010
 pred           3          17           7   4.0967798267696333E-010
 pred           3          17           8   5.5696033740372901E-010
 mort           3           1   4.0132219972251545E-009   1.6534391534391535E-006  0.40258139332918674        6.0290830727417139E-003   0.0000000000000000        0.0000000000000000       0.40258139332918674        3.6349842698020665E-005
 mort           3           2   4.0131697852523545E-009   1.6534391534391535E-006  0.40258139332918674        6.0290046344391168E-003   0.0000000000000000        0.0000000000000000       0.40258139332918674        3.6348896882088350E-005
 mort           3           3   4.0128038924491319E-009   1.6534391534391535E-006  0.40258139332918674        6.0284549518878220E-003   0.0000000000000000        0.0000000000000000       0.40258139332918674        3.6342269106940804E-005
 mort           3           4   4.0128038924491319E-009   1.6534391534391535E-006  0.40258139332918674        6.0284549518878220E-003   0.0000000000000000        0.0000000000000000       0.40258139332918674        3.6342269106940804E-005
 mort           3           5   4.0132285399428110E-010   1.6534391534391535E-006  0.40258139332918674        6.0290929018985110E-004   0.0000000000000000        0.0000000000000000       0.40258139332918674        3.6349961219723010E-007
 mort           3           6   4.0133003158211757E-009   1.6534391534391535E-006  0.40258139332918674        6.0292007311523064E-003   0.0000000000000000        0.0000000000000000       0.40258139332918674        3.6351261456527508E-005
 mort           3           7   1.2534749132213441E-008   2.3148148148148148E-007  0.40258139332918674        9.6927493976678922E-002   3.5020626560472931E-009   9.2592592592592583E-007  0.40258139332918674        9.3949390885991295E-003
 mort           3           8   1.2534925275964617E-008   2.3148148148148148E-007  0.40258139332918674        9.6928558597979927E-002   3.5021395875932093E-009   9.2592592592592583E-007  0.40258139332918674        9.3951454718820288E-003
 graz           3           7           1   3.7826400492091074E-011   5.5536590942798692E-010  0.17200000000000001        5.9100954507278038E-003   1.4924752676469429E-002
 graz           3           7           2   3.9585257477882801E-011   5.5536590942798692E-010  0.18000000000000002        5.9100192369894999E-003   1.4924752676469429E-002
 graz           3           7           3   2.1989863925517176E-010   5.5536590942798692E-010   1.0000000000000000        5.9094963321675957E-003   1.4924752676469429E-002
 graz           3           7           4   2.1989863925517176E-010   5.5536590942798692E-010   1.0000000000000000        5.9094963321675957E-003   1.4924752676469429E-002
 graz           3           7           5   2.9689430086065091E-012   5.5536590942798692E-010  0.13500000000000001        5.9101161770283106E-004   1.4924752676469429E-002
 graz           3           7           6   3.5188029939063088E-011   5.5536590942798692E-010  0.16000000000000003        5.9102097722566463E-003   1.4924752676469429E-002
 graz           3           8           1   1.8904077463694838E-010   6.6548146039374888E-010  0.85999999999999999        5.9100954507278038E-003   1.7892598593538228E-002
 graz           3           8           2   1.9783081764247299E-010   6.6548146039374888E-010  0.90000000000000002        5.9100192369894999E-003   1.7892598593538228E-002
 graz           3           8           3   4.3958514228812398E-011   6.6548146039374888E-010  0.20000000000000001        5.9094963321675957E-003   1.7892598593538228E-002
 graz           3           8           4   4.3958514228812398E-011   6.6548146039374888E-010  0.20000000000000001        5.9094963321675957E-003   1.7892598593538228E-002
 graz           3           8           5   1.4837554694565134E-011   6.6548146039374888E-010  0.67500000000000004        5.9101161770283106E-004   1.7892598593538228E-002
 graz           3           8           6   1.7585528496213758E-010   6.6548146039374888E-010  0.80000000000000004        5.9102097722566463E-003   1.7892598593538228E-002
 prey           3          18           1   2.2686717512903944E-010
 prey           3          18           2   2.3741607512035580E-010
 prey           3          18           3   2.6385715348398416E-010
 prey           3          18           4   2.6385715348398416E-010
 prey           3          18           5   1.7806497703171642E-011
 prey           3          18           6   2.1104331490120068E-010
 pred           3          18           7   3.9806527517533220E-010
 pred           3          18           8   5.4117687116076157E-010
 mort           3           1   3.9065098611356451E-009   1.6534391534391535E-006  0.39976632927711631        5.9100954507278029E-003   0.0000000000000000        0.0000000000000000       0.39976632927711631        3.4929228236713475E-005
 mort           3           2   3.9064594846700325E-009   1.6534391534391535E-006  0.39976632927711631        5.9100192369894991E-003   0.0000000000000000        0.0000000000000000       0.39976632927711631        3.4928327381585940E-005
 mort           3           3   3.9061138501772849E-009   1.6534391534391535E-006  0.39976632927711631        5.9094963321675948E-003   0.0000000000000000        0.0000000000000000       0.39976632927711631        3.4922146899902258E-005
 mort           3           4   3.9061138501772849E-009   1.6534391534391535E-006  0.39976632927711631        5.9094963321675948E-003   0.0000000000000000        0.0000000000000000       0.39976632927711631        3.4922146899902258E-005
 mort           3           5   3.9065235609985236E-010   1.6534391534391535E-006  0.39976632927711631        5.9101161770282987E-004   0.0000000000000000        0.0000000000000000       0.39976632927711631        3.4929473225971590E-007
 mort           3           6   3.9065854264430898E-009   1.6534391534391535E-006  0.39976632927711631        5.9102097722566454E-003   0.0000000000000000        0.0000000000000000       0.39976632927711631        3.4930579552077945E-005
 mort           3           7   1.2417553879906798E-008   2.3148148148148148E-007  0.39976632927711631        9.6747588151311084E-002   3.4646769860031258E-009   9.2592592592592583E-007  0.39976632927711631        9.3600958130957094E-003
 mort           3           8   1.2417723697327329E-008   2.3148148148148148E-007  0.39976632927711631        9.6748622602181339E-002   3.4647510768895775E-009   9.2592592592592583E-007  0.39976632927711631        9.3602959754193141E-003
 graz           3           7           1   3.6750685672426013E-011   5.3957195855854666E-010  0.17200000000000001        5.7910627067255232E-003   1.4624150222410816E-002
 graz           3           7           2   3.8459528135723201E-011   5.3957195855854666E-010  0.18000000000000002        5.7909886615637443E-003   1.4624150222410816E-002
 graz           3           7           3   2.1364494898233807E-010   5.3957195855854666E-010   1.0000000000000000        5.7904710921666512E-003   1.4624150222410816E-002
 graz           3           7           4   2.1364494898233807E-010   5.3957195855854666E-010   1.0000000000000000        5.7904710921666512E-003   1.4624150222410816E-002
 graz           3           7           5   2.8845067620056254E-012   5.3957195855854666E-010  0.13500000000000001        5.7910732875798853E-004   1.4624150222410816E-002
 graz           3           7           6   3.4187340023715698E-011   5.3957195855854666E-010  0.16000000000000003        5.7911737753557598E-003   1.4624150222410816E-002
 graz           3           8           1   1.8366656280366233E-010   6.4656248922215442E-010  0.85999999999999999        5.7910627067255232E-003   1.7532228627254232E-002
 graz           3           8           2   1.9220673602394665E-010   6.4656248922215442E-010  0.90000000000000002        5.7909886615637443E-003   1.7532228627254232E-002
 graz           3           8           3   4.2708790567563340E-011   6.4656248922215442E-010  0.20000000000000001        5.7904710921666512E-003   1.7532228627254232E-002
 graz           3           8           4   4.2708790567563340E-011   6.4656248922215442E-010  0.20000000000000001        5.7904710921666512E-003   1.7532228627254232E-002
 graz           3           8           5   1.4415715861295989E-011   6.4656248922215442E-010  0.67500000000000004        5.7910732875798853E-004   1.7532228627254232E-002
 graz           3           8           6   1.7085589339812280E-010   6.4656248922215442E-010  0.80000000000000004        5.7911737753557598E-003   1.7532228627254232E-002
 prey           3          19           1   2.2041724847608834E-010
 prey           3          19           2   2.3066626415966985E-010
 prey           3          19           3   2.5635373954990142E-010
 prey           3          19           4   2.5635373954990142E-010
 prey           3          19           5   1.7300222623301613E-011
 prey           3          19           6   2.0504323342183848E-010
 pred           3          19           7   3.8674474260928915E-010
 pred           3          19           8   5.2579174949123620E-010
 mort           3           1   3.8023189933497672E-009   1.6534391534391535E-006  0.39710199036650401        5.7910627067255223E-003   0.0000000000000000        0.0000000000000000       0.39710199036650401        3.3536407273227132E-005
 mort           3           2   3.8022703764828367E-009   1.6534391534391535E-006  0.39710199036650401        5.7909886615637434E-003   0.0000000000000000        0.0000000000000000       0.39710199036650401        3.3535549678359839E-005
 mort           3           3   3.8019305487087985E-009   1.6534391534391535E-006  0.39710199036650401        5.7904710921666503E-003   0.0000000000000000        0.0000000000000000       0.39710199036650401        3.3529555469217644E-005
 mort           3           4   3.8019305487087985E-009   1.6534391534391535E-006  0.39710199036650401        5.7904710921666503E-003   0.0000000000000000        0.0000000000000000       0.39710199036650401        3.3529555469217644E-005
 mort           3           5   3.8023259405692153E-010   1.6534391534391535E-006  0.39710199036650401        5.7910732875798734E-004   0.0000000000000000        0.0000000000000000       0.39710199036650401        3.3536529822121161E-007
 mort           3           6   3.8023919192329252E-009   1.6534391534391535E-006  0.39710199036650401        5.7911737753557589E-003   0.0000000000000000        0.0000000000000000       0.39710199036650401        3.3537693696368273E-005
 mort           3           7   1.2305376735678559E-008   2.3148148148148148E-007  0.39710199036650401        9.6567114681183716E-002   3.4287578829358502E-009   9.2592592592592583E-007  0.39710199036650401        9.3252076378488868E-003
 mort           3           8   1.2305540491933118E-008   2.3148148148148148E-007  0.39710199036650401        9.6568119721087836E-002   3.4288292541565377E-009   9.2592592592592583E-007  0.39710199036650401        9.3254017464663528E-003
 graz           3           7           1   3.4377593371317417E-011   5.0471516194916378E-010  0.17200000000000001        5.5370468798632329E-003   1.3982264988443790E-002
 graz           3           7           2   3.5976101170523574E-011   5.0471516194916378E-010  0.18000000000000002        5.5369776167377444E-003   1.3982264988443790E-002
 graz           3           7           3   1.9984178607021625E-010   5.0471516194916378E-010   1.0000000000000000        5.5362727717680523E-003   1.3982264988443790E-002
 graz           3           7           4   1.9984178607021625E-010   5.0471516194916378E-010   1.0000000000000000        5.5362727717680523E-003   1.3982264988443790E-002
 graz           3           7           5   2.6981385950272705E-012   5.0471516194916378E-010  0.13500000000000001        5.5368360370532804E-004   1.3982264988443790E-002
 graz           3           7           6   3.1979756671863026E-011   5.0471516194916378E-010  0.16000000000000003        5.5371507753637196E-003   1.3982264988443790E-002
 graz           3           8           1   1.7181024740129434E-010   6.0482106882456900E-010  0.85999999999999999        5.5370468798632329E-003   1.6763106333245643E-002
 graz           3           8           2   1.7979917255635341E-010   6.0482106882456900E-010  0.90000000000000002        5.5369776167377444E-003   1.6763106333245643E-002
 graz           3           8           3   3.9950285448995192E-011   6.0482106882456900E-010  0.20000000000000001        5.5362727717680523E-003   1.6763106333245643E-002
 graz           3           8           4   3.9950285448995192E-011   6.0482106882456900E-010  0.20000000000000001        5.5362727717680523E-003   1.6763106333245643E-002
 graz           3           8           5   1.3484593133892527E-011   6.0482106882456900E-010  0.67500000000000004        5.5368360370532804E-004   1.6763106333245643E-002
 graz           3           8           6   1.5982648483503838E-010   6.0482106882456900E-010  0.80000000000000004        5.5371507753637196E-003   1.6763106333245643E-002
 prey           3          20           1   2.0618784077261175E-010
 prey           3          20           2   2.1577527372687698E-010
 prey           3          20           3   2.3979207151921147E-010
 prey           3          20           4   2.3979207151921147E-010
 prey           3          20           5   1.6182731728919798E-011
 prey           3          20           6   1.9180624150690140E-010
 pred           3          20           7   3.6175949363583852E-010
 pred           3          20           8   4.9184691214945436E-010
 mort           3           1   3.6136329703492980E-009   1.6534391534391535E-006  0.39470953883656462        5.5370468798632321E-003   0.0000000000000000        0.0000000000000000       0.39470953883656462        3.0658888149803156E-005
 mort           3           2   3.6135877672799860E-009   1.6534391534391535E-006  0.39470953883656462        5.5369776167377436E-003   0.0000000000000000        0.0000000000000000       0.39470953883656462        3.0658121128254782E-005
 mort           3           3   3.6131277655720849E-009   1.6534391534391535E-006  0.39470953883656462        5.5362727717680514E-003   0.0000000000000000        0.0000000000000000       0.39470953883656462        3.0650316203420306E-005
 mort           3           4   3.6131277655720849E-009   1.6534391534391535E-006  0.39470953883656462        5.5362727717680514E-003   0.0000000000000000        0.0000000000000000       0.39470953883656462        3.0650316203420306E-005
 mort           3           5   3.6134953683845368E-010   1.6534391534391535E-006  0.39470953883656462        5.5368360370532685E-004   0.0000000000000000        0.0000000000000000       0.39470953883656462        3.0656553301211741E-007
 mort           3           6   3.6137007754833658E-009   1.6534391534391535E-006  0.39470953883656462        5.5371507753637188E-003   0.0000000000000000        0.0000000000000000       0.39470953883656462        3.0660038709111032E-005
 mort           3           7   1.1984455132594653E-008   2.3148148148148148E-007  0.39470953883656462        9.5038036236636952E-002   3.3010247032206493E-009   9.2592592592592583E-007  0.39470953883656462        9.0322283317163191E-003
 mort           3           8   1.1984606348262521E-008   2.3148148148148148E-007  0.39470953883656462        9.5038976423636248E-002   3.3010900159309004E-009   9.2592592592592583E-007  0.39470953883656462        9.0324070396524871E-003
 graz           3           7           1   2.4359053725673315E-011   3.5751242910796027E-010  0.17200000000000001        4.4588324183129505E-003   1.1255902655788377E-002
 graz           3           7           2   2.5491752409127907E-011   3.5751242910796027E-010  0.18000000000000002        4.4587833454029476E-003   1.1255902655788377E-002
 graz           3           7           3   1.4154531561517066E-010   3.5751242910796027E-010   1.0000000000000000        4.4564053281238199E-003   1.1255902655788377E-002
 graz           3           7           4   1.4154531561517066E-010   3.5751242910796027E-010   1.0000000000000000        4.4564053281238199E-003   1.1255902655788377E-002
 graz           3           7           5   1.9110327996868481E-012   3.5751242910796027E-010  0.13500000000000001        4.4568042154744853E-004   1.1255902655788377E-002
 graz           3           7           6   2.2659958943130814E-011   3.5751242910796027E-010  0.16000000000000003        4.4589060281842001E-003   1.1255902655788377E-002
 graz           3           8           1   1.2175084181317524E-010   4.2857073041043187E-010  0.85999999999999999        4.4588324183129505E-003   1.3498022128953204E-002
 graz           3           8           2   1.2741226937864445E-010   4.2857073041043187E-010  0.90000000000000002        4.4587833454029476E-003   1.3498022128953204E-002
 graz           3           8           3   2.8298736929498291E-011   4.2857073041043187E-010  0.20000000000000001        4.4564053281238199E-003   1.3498022128953204E-002
 graz           3           8           4   2.8298736929498291E-011   4.2857073041043187E-010  0.20000000000000001        4.4564053281238199E-003   1.3498022128953204E-002
 graz           3           8           5   9.5516785961697514E-012   4.2857073041043187E-010  0.67500000000000004        4.4568042154744853E-004   1.3498022128953204E-002
 graz           3           8           6   1.1325846676344594E-010   4.2857073041043187E-010  0.80000000000000004        4.4589060281842001E-003   1.3498022128953204E-002
 prey           3          21           1   1.4610989553884856E-010
 prey           3          21           2   1.5290402178777236E-010
 prey           3          21           3   1.6984405254466896E-010
 prey           3          21           4   1.6984405254466896E-010
 prey           3          21           5   1.1462711395856600E-011
 prey           3          21           6   1.3591842570657675E-010
 pred           3          21           7   2.5624122413532062E-010
 pred           3          21           8   3.4851633171424521E-010
 mort           3           1   2.8866305834392760E-009   1.6534391534391535E-006  0.39154514300508975        4.4588324183129496E-003   0.0000000000000000        0.0000000000000000       0.39154514300508975        1.9881186534598506E-005
 mort           3           2   2.8865988138302071E-009   1.6534391534391535E-006  0.39154514300508975        4.4587833454029467E-003   0.0000000000000000        0.0000000000000000       0.39154514300508975        1.9880748921242692E-005
 mort           3           3   2.8850592947898227E-009   1.6534391534391535E-006  0.39154514300508975        4.4564053281238190E-003   0.0000000000000000        0.0000000000000000       0.39154514300508975        1.9859548448530363E-005
 mort           3           4   2.8850592947898227E-009   1.6534391534391535E-006  0.39154514300508975        4.4564053281238190E-003   0.0000000000000000        0.0000000000000000       0.39154514300508975        1.9859548448530363E-005
 mort           3           5   2.8853175328929226E-010   1.6534391534391535E-006  0.39154514300508975        4.4568042154744734E-004   0.0000000000000000        0.0000000000000000       0.39154514300508975        1.9863103815071035E-007
 mort           3           6   2.8866782381806202E-009   1.6534391534391535E-006  0.39154514300508975        4.4589060281841992E-003   0.0000000000000000        0.0000000000000000       0.39154514300508975        1.9881842968177390E-005
 mort           3           7   1.0211396883121641E-008   2.3148148148148148E-007  0.39154514300508975        8.4263286169096493E-002   2.5741560421129165E-009   9.2592592592592583E-007  0.39154514300508975        7.1003013960150487E-003
 mort           3           8   1.0211497983415111E-008   2.3148148148148148E-007  0.39154514300508975        8.4263952470307546E-002   2.5741967518964417E-009   9.2592592592592583E-007  0.39154514300508975        7.1004136859182491E-003
 graz           3           7           1   1.5968655935846415E-011   2.3433906171317391E-010  0.17200000000000001        3.3785348064330244E-003   8.5277246191484257E-003
 graz           3           7           2   1.6711225001745069E-011   2.3433906171317391E-010  0.18000000000000002        3.3785026377704556E-003   8.5277246191484257E-003
 graz           3           7           3   9.2775916553839125E-011   2.3433906171317391E-010   1.0000000000000000        3.3761655520691903E-003   8.5277246191484257E-003
 graz           3           7           4   9.2775916553839125E-011   2.3433906171317391E-010   1.0000000000000000        3.3761655520691903E-003   8.5277246191484257E-003
 graz           3           7           5   1.2525718491708175E-012   2.3433906171317391E-010  0.13500000000000001        3.3764269593072660E-004   8.5277246191484257E-003
 graz           3           7           6   1.4854775818733366E-011   2.3433906171317391E-010  0.16000000000000003        3.3785830597139665E-003   8.5277246191484257E-003
 graz           3           8           1   7.9821193007434246E-011   2.8096876507184383E-010  0.85999999999999999        3.3785348064330244E-003   1.0227433795877903E-002
 graz           3           8           2   8.3533011269946329E-011   2.8096876507184383E-010  0.90000000000000002        3.3785026377704556E-003   1.0227433795877903E-002
 graz           3           8           3   1.8550050477477662E-011   2.8096876507184383E-010  0.20000000000000001        3.3761655520691903E-003   1.0227433795877903E-002
 graz           3           8           4   1.8550050477477662E-011   2.8096876507184383E-010  0.20000000000000001        3.3761655520691903E-003   1.0227433795877903E-002
 graz           3           8           5   6.2611267804890015E-012   2.8096876507184383E-010  0.67500000000000004        3.3764269593072660E-004   1.0227433795877903E-002
 graz           3           8           6   7.4253333059018904E-011   2.8096876507184383E-010  0.80000000000000004        3.3785830597139665E-003   1.0227433795877903E-002
 prey           3          22           1   9.5789848943280661E-011
 prey           3          22           2   1.0024423627169140E-010
 prey           3          22           3   1.1132596703131678E-010
 prey           3          22           4   1.1132596703131678E-010
 prey           3          22           5   7.5136986296598188E-012
 prey           3          22           6   8.9108108877752273E-011
 pred           3          22           7   1.6795635792834092E-010
 pred           3          22           8   2.2848502215297060E-010
 mort           3           1   2.1688982494415299E-009   1.6534391534391535E-006  0.38825992224929939        3.3785348064330231E-003   0.0000000000000000        0.0000000000000000       0.38825992224929939        1.1414497438279425E-005
 mort           3           2   2.1688775983131770E-009   1.6534391534391535E-006  0.38825992224929939        3.3785026377704543E-003   0.0000000000000000        0.0000000000000000       0.38825992224929939        1.1414280073421917E-005
 mort           3           3   2.1673772730607577E-009   1.6534391534391535E-006  0.38825992224929939        3.3761655520691890E-003   0.0000000000000000        0.0000000000000000       0.38825992224929939        1.1398493834978652E-005
 mort           3           4   2.1673772730607577E-009   1.6534391534391535E-006  0.38825992224929939        3.3761655520691890E-003   0.0000000000000000        0.0000000000000000       0.38825992224929939        1.1398493834978652E-005
 mort           3           5   2.1675450871380175E-010   1.6534391534391535E-006  0.38825992224929939        3.3764269593072540E-004   0.0000000000000000        0.0000000000000000       0.38825992224929939        1.1400259011536830E-007
 mort           3           6   2.1689292263183601E-009   1.6534391534391535E-006  0.38825992224929939        3.3785830597139652E-003   0.0000000000000000        0.0000000000000000       0.38825992224929939        1.1414823491386179E-005
 mort           3           7   8.5458435237701208E-009   2.3148148148148148E-007  0.38825992224929939        7.3485452675543406E-002   1.9413397871356174E-009   9.2592592592592583E-007  0.38825992224929939        5.4001117549295295E-003
 mort           3           8   8.5459058741676001E-009   2.3148148148148148E-007  0.38825992224929939        7.3485889574756935E-002   1.9413628712241452E-009   9.2592592592592583E-007  0.38825992224929939        5.4001759665933697E-003
 graz           3           7           1   9.1921156141315109E-012   1.3486049690874488E-010  0.17200000000000001        2.2981574836070102E-003   5.7993258347206833E-003
 graz           3           7           2   9.6195783725991821E-012   1.3486049690874488E-010  0.18000000000000002        2.2981389680480067E-003   5.7993258347206833E-003
 graz           3           7           3   5.3388550854250944E-011   1.3486049690874488E-010   1.0000000000000000        2.2958361369294325E-003   5.7993258347206833E-003
 graz           3           7           4   5.3388550854250944E-011   1.3486049690874488E-010   1.0000000000000000        2.2958361369294325E-003   5.7993258347206833E-003
 graz           3           7           5   7.2079265367122215E-013   1.3486049690874488E-010  0.13500000000000001        2.2959865406755038E-004   5.7993258347206833E-003
 graz           3           7           6   8.5509085598410840E-012   1.3486049690874488E-010  0.16000000000000003        2.2981852570853278E-003   5.7993258347206833E-003
 graz           3           8           1   4.5951923636095156E-011   1.6174193439754992E-010  0.85999999999999999        2.2981574836070102E-003   6.9566022590808662E-003
 graz           3           8           2   4.8088834969562647E-011   1.6174193439754992E-010  0.90000000000000002        2.2981389680480067E-003   6.9566022590808662E-003
 graz           3           8           3   1.0675699544617251E-011   1.6174193439754992E-010  0.20000000000000001        2.2958361369294325E-003   6.9566022590808662E-003
 graz           3           8           4   1.0675699544617251E-011   1.6174193439754992E-010  0.20000000000000001        2.2958361369294325E-003   6.9566022590808662E-003
 graz           3           8           5   3.6032846375472614E-012   1.6174193439754992E-010  0.67500000000000004        2.2959865406755038E-004   6.9566022590808662E-003
 graz           3           8           6   4.2746492065110383E-011   1.6174193439754992E-010  0.80000000000000004        2.2981852570853278E-003   6.9566022590808662E-003
 prey           3          23           1   5.5144039250226667E-011
 prey           3          23           2   5.7708413342161828E-011
 prey           3          23           3   6.4064250398868192E-011
 prey           3          23           4   6.4064250398868192E-011
 prey           3          23           5   4.3240772912184833E-012
 prey           3          23           6   5.1297400624951469E-011
 pred           3          23           7   9.6655039446898715E-011
 pred           3          23           8   1.3152868742696342E-010
 mort           3           1   1.4624227141373445E-009   1.6534391534391535E-006  0.38486190081371863        2.2981574836070089E-003   0.0000000000000000        0.0000000000000000       0.38486190081371863        5.2815278194588991E-006
 mort           3           2   1.4624109318403326E-009   1.6534391534391535E-006  0.38486190081371863        2.2981389680480054E-003   0.0000000000000000        0.0000000000000000       0.38486190081371863        5.2814427164607515E-006
 mort           3           3   1.4609455350785148E-009   1.6534391534391535E-006  0.38486190081371863        2.2958361369294312E-003   0.0000000000000000        0.0000000000000000       0.38486190081371863        5.2708635676310542E-006
 mort           3           4   1.4609455350785148E-009   1.6534391534391535E-006  0.38486190081371863        2.2958361369294312E-003   0.0000000000000000        0.0000000000000000       0.38486190081371863        5.2708635676310542E-006
 mort           3           5   1.4610412438609197E-010   1.6534391534391535E-006  0.38486190081371863        2.2959865406754919E-004   0.0000000000000000        0.0000000000000000       0.38486190081371863        5.2715541949630120E-008
 mort           3           6   1.4624403876718309E-009   1.6534391534391535E-006  0.38486190081371863        2.2981852570853264E-003   0.0000000000000000        0.0000000000000000       0.38486190081371863        5.2816554758843483E-006
 mort           3           7   6.9877425742385344E-009   2.3148148148148148E-007  0.38486190081371863        6.2707253206271990E-002   1.4012535316984900E-009   9.2592592592592583E-007  0.38486190081371863        3.9321996046755084E-003
 mort           3           8   6.9877762257786620E-009   2.3148148148148148E-007  0.38486190081371863        6.2707504749389548E-002   1.4012647736639975E-009   9.2592592592592583E-007  0.38486190081371863        3.9322311518947125E-003
 graz           3           7           1   2.5524415770193608E-012   3.7437270531743831E-011  0.17200000000000001        8.8286833701682588E-004   2.2272694289245808E-003
 graz           3           7           2   2.6711442357763821E-012   3.7437270531743831E-011  0.18000000000000002        8.8286319608635072E-004   2.2272694289245808E-003
 graz           3           7           3   1.4819612739469766E-011   3.7437270531743831E-011   1.0000000000000000        8.8166872035007804E-004   2.2272694289245808E-003
 graz           3           7           4   1.4819612739469766E-011   3.7437270531743831E-011   1.0000000000000000        8.8166872035007804E-004   2.2272694289245808E-003
 graz           3           7           5   2.0007424340387333E-013   3.7437270531743831E-011  0.13500000000000001        8.8171046011054646E-005   2.2272694289245808E-003
 graz           3           7           6   2.3743849966046739E-012   3.7437270531743831E-011  0.16000000000000003        8.8287604844059159E-004   2.2272694289245808E-003
 graz           3           8           1   1.2761292612913047E-011   4.4914848953237823E-011  0.85999999999999999        8.8286833701682588E-004   2.6723274292621522E-003
 graz           3           8           2   1.3354763341476419E-011   4.4914848953237823E-011  0.90000000000000002        8.8286319608635072E-004   2.6723274292621522E-003
 graz           3           8           3   2.9637099831177555E-012   4.4914848953237823E-011  0.20000000000000001        8.8166872035007804E-004   2.6723274292621522E-003
 graz           3           8           4   2.9637099831177555E-012   4.4914848953237823E-011  0.20000000000000001        8.8166872035007804E-004   2.6723274292621522E-003
 graz           3           8           5   1.0002994730110721E-012   4.4914848953237823E-011  0.67500000000000004        8.8171046011054646E-005   2.6723274292621522E-003
 graz           3           8           6   1.1871073559601776E-011   4.4914848953237823E-011  0.80000000000000004        8.8287604844059159E-004   2.6723274292621522E-003
 prey           3          24           1   1.5313734189932408E-011
 prey           3          24           2   1.6025907577252799E-011
 prey           3          24           3   1.7783322722587521E-011
 prey           3          24           4   1.7783322722587521E-011
 prey           3          24           5   1.2003737164149455E-012
 prey           3          24           6   1.4245458556206451E-011
 pred           3          24           7   2.6830598404273343E-011
 pred           3          24           8   3.6524621159213810E-011
 mort           3           1   5.5687300777526055E-010   1.6534391534391535E-006  0.38148020602992727        8.8286833701682469E-004   0.0000000000000000        0.0000000000000000       0.38148020602992727        7.7945650050685359E-007
 mort           3           2   5.5686976511121149E-010   1.6534391534391535E-006  0.38148020602992727        8.8286319608634953E-004   0.0000000000000000        0.0000000000000000       0.38148020602992727        7.7944742300380411E-007
 mort           3           3   5.5611634439366678E-010   1.6534391534391535E-006  0.38148020602992727        8.8166872035007685E-004   0.0000000000000000        0.0000000000000000       0.38148020602992727        7.7733973244374201E-007
 mort           3           4   5.5611634439366678E-010   1.6534391534391535E-006  0.38148020602992727        8.8166872035007685E-004   0.0000000000000000        0.0000000000000000       0.38148020602992727        7.7733973244374201E-007
 mort           3           5   5.5614267192742831E-011   1.6534391534391535E-006  0.38148020602992727        8.8171046011053440E-005   0.0000000000000000        0.0000000000000000       0.38148020602992727        7.7741333546833024E-009
 mort           3           6   5.5687787178902857E-010   1.6534391534391535E-006  0.38148020602992727        8.8287604844059040E-004   0.0000000000000000        0.0000000000000000       0.38148020602992727        7.7947011691007171E-007
 mort           3           7   4.7732894463832682E-009   2.3148148148148148E-007  0.38148020602992727        4.5700181612259284E-002   7.3770734058471109E-010   9.2592592592592583E-007  0.38148020602992727        2.0885065993934814E-003
 mort           3           8   4.7732978716173468E-009   2.3148148148148148E-007  0.38148020602992727        4.5700251478866652E-002   7.3770959620587929E-010   9.2592592592592583E-007  0.38148020602992727        2.0885129852316535E-003
 graz           3           7           1   9.8220921886681610E-013   1.4416379744311642E-011  0.17200000000000001        5.6480717160362786E-004   1.4258730380654712E-003
 graz           3           7           2   1.0278897670436343E-012   1.4416379744311642E-011  0.18000000000000002        5.6480519262943967E-004   1.4258730380654712E-003
 graz           3           7           3   5.7077679504033391E-012   1.4416379744311642E-011   1.0000000000000000        5.6453510328941046E-004   1.4258730380654712E-003
 graz           3           7           4   5.7077679504033391E-012   1.4416379744311642E-011   1.0000000000000000        5.6453510328941046E-004   1.4258730380654712E-003
 graz           3           7           5   7.7057061238731860E-014   1.4416379744311642E-011  0.13500000000000001        5.6455117674828710E-005   1.4258730380654712E-003
 graz           3           7           6   9.1368779635578095E-013   1.4416379744311642E-011  0.16000000000000003        5.6481014007140793E-004   1.4258730380654712E-003
 graz           3           8           1   4.9108253152822996E-012   1.7286549235457043E-011  0.85999999999999999        5.6480717160362786E-004   1.7098281987490153E-003
 graz           3           8           2   5.1392177881828294E-012   1.7286549235457043E-011  0.90000000000000002        5.6480519262943967E-004   1.7098281987490153E-003
 graz           3           8           3   1.1415022708475893E-012   1.7286549235457043E-011  0.20000000000000001        5.6453510328941046E-004   1.7098281987490153E-003
 graz           3           8           4   1.1415022708475893E-012   1.7286549235457043E-011  0.20000000000000001        5.6453510328941046E-004   1.7098281987490153E-003
 graz           3           8           5   3.8526798545935288E-013   1.7286549235457043E-011  0.67500000000000004        5.6455117674828710E-005   1.7098281987490153E-003
 graz           3           8           6   4.5682336048373844E-012   1.7286549235457043E-011  0.80000000000000004        5.6481014007140793E-004   1.7098281987490153E-003
 prey           3          25           1   5.8930345341491158E-012
 prey           3          25           2   6.1671075552264637E-012
 prey           3          25           3   6.8492702212509288E-012
 prey           3          25           4   6.8492702212509288E-012
 prey           3          25           5   4.6232504669808471E-013
 prey           3          25           6   5.4819214011931654E-012
 pred           3          25           7   1.0332766258047329E-011
 pred           3          25           8   1.4057539842535155E-011
 mort           3           1   3.4927654999585168E-010   1.6534391534391535E-006  0.37400810056593609        5.6480717160362667E-004   0.0000000000000000        0.0000000000000000       0.37400810056593609        3.1900714109488860E-007
 mort           3           2   3.4927532619893183E-010   1.6534391534391535E-006  0.37400810056593609        5.6480519262943848E-004   0.0000000000000000        0.0000000000000000       0.37400810056593609        3.1900490562117711E-007
 mort           3           3   3.4910830304905171E-010   1.6534391534391535E-006  0.37400810056593609        5.6453510328940927E-004   0.0000000000000000        0.0000000000000000       0.37400810056593609        3.1869988284598401E-007
 mort           3           4   3.4910830304905171E-010   1.6534391534391535E-006  0.37400810056593609        5.6453510328940927E-004   0.0000000000000000        0.0000000000000000       0.37400810056593609        3.1869988284598401E-007
 mort           3           5   3.4911824287018262E-011   1.6534391534391535E-006  0.37400810056593609        5.6455117674827511E-005   0.0000000000000000        0.0000000000000000       0.37400810056593609        3.1871803116786217E-009
 mort           3           6   3.4927838569524991E-010   1.6534391534391535E-006  0.37400810056593609        5.6481014007140674E-004   0.0000000000000000        0.0000000000000000       0.37400810056593609        3.1901049432748209E-007
 mort           3           7   2.6993081655988273E-009   2.3148148148148148E-007  0.37400810056593609        2.8034717653931524E-002   2.7217587401335413E-010   9.2592592592592583E-007  0.37400810056593609        7.8594539393565983E-004
 mort           3           8   2.6993110159138873E-009   2.3148148148148148E-007  0.37400810056593609        2.8034744545467821E-002   2.7217639616813356E-010   9.2592592592592583E-007  0.37400810056593609        7.8594690172963772E-004
 graz           3           7           1   4.2456658651626805E-014   6.2279305566530797E-013  0.17200000000000001        1.4462389624470822E-004   3.6489377434543476E-004
 graz           3           7           2   4.4431360643403854E-014   6.2279305566530797E-013  0.18000000000000002        1.4462381058107611E-004   3.6489377434543476E-004
 graz           3           7           3   2.4654105741093338E-013   6.2279305566530797E-013   1.0000000000000000        1.4444813754977968E-004   3.6489377434543476E-004
 graz           3           7           4   2.4654105741093338E-013   6.2279305566530797E-013   1.0000000000000000        1.4444813754977968E-004   3.6489377434543476E-004
 graz           3           7           5   3.3283202707031819E-015   6.2279305566530797E-013  0.13500000000000001        1.4444883175994398E-005   3.6489377434543476E-004
 graz           3           7           6   3.9494601277707339E-014   6.2279305566530797E-013  0.16000000000000003        1.4462402474020380E-004   3.6489377434543476E-004
 graz           3           8           1   2.1228192843085206E-013   7.4716632341429722E-013  0.85999999999999999        1.4462389624470822E-004   4.3776675124928871E-004
 graz           3           8           2   2.2215537491024463E-013   7.4716632341429722E-013  0.90000000000000002        1.4462381058107611E-004   4.3776675124928871E-004
 graz           3           8           3   4.9307894466225498E-014   7.4716632341429722E-013  0.20000000000000001        1.4444813754977968E-004   4.3776675124928871E-004
 graz           3           8           4   4.9307894466225498E-014   7.4716632341429722E-013  0.20000000000000001        1.4444813754977968E-004   4.3776675124928871E-004
 graz           3           8           5   1.6641494360114809E-014   7.4716632341429722E-013  0.67500000000000004        1.4444883175994398E-005   4.3776675124928871E-004
 graz           3           8           6   1.9747173678063477E-013   7.4716632341429722E-013  0.80000000000000004        1.4462402474020380E-004   4.3776675124928871E-004
 prey           3          26           1   2.5473858708247884E-013
 prey           3          26           2   2.6658673555364847E-013
 prey           3          26           3   2.9584895187715887E-013
 prey           3          26           4   2.9584895187715887E-013
 prey           3          26           5   1.9969814630817991E-014
 prey           3          26           6   2.3696633805834212E-013
 pred           3          26           7   4.4635006819486992E-013
 pred           3          26           8   6.0759463762468293E-013
 mort           3           1   8.7678080070422181E-011   1.6534391534391535E-006  0.36665934332779426        1.4462389624470703E-004   0.0000000000000000        0.0000000000000000       0.36665934332779426        2.0916071364999784E-008
 mort           3           2   8.7678028136938226E-011   1.6534391534391535E-006  0.36665934332779426        1.4462381058107492E-004   0.0000000000000000        0.0000000000000000       0.36665934332779426        2.0916046586990638E-008
 mort           3           3   8.7571526552454832E-011   1.6534391534391535E-006  0.36665934332779426        1.4444813754977849E-004   0.0000000000000000        0.0000000000000000       0.36665934332779426        2.0865264441599727E-008
 mort           3           4   8.7571526552454832E-011   1.6534391534391535E-006  0.36665934332779426        1.4444813754977849E-004   0.0000000000000000        0.0000000000000000       0.36665934332779426        2.0865264441599727E-008
 mort           3           5   8.7571947416606640E-012   1.6534391534391535E-006  0.36665934332779426        1.4444883175993199E-005   0.0000000000000000        0.0000000000000000       0.36665934332779426        2.0865464996809136E-010
 mort           3           6   8.7678157970676859E-011   1.6534391534391535E-006  0.36665934332779426        1.4462402474020261E-004   0.0000000000000000        0.0000000000000000       0.36665934332779426        2.0916108532054734E-008
 mort           3           7   4.1757468512792692E-010   2.3148148148148148E-007  0.36665934332779426        4.8266991812050313E-003   7.9093258174085736E-012   9.2592592592592583E-007  0.36665934332779426        2.3297024985845320E-005
 mort           3           8   4.1757478758436023E-010   2.3148148148148148E-007  0.36665934332779426        4.8267003434728679E-003   7.9093296265360001E-012   9.2592592592592583E-007  0.36665934332779426        2.3297036205681100E-005
 graz           3           7           1   5.1148307906360075E-015   7.5067576442651320E-014  0.17200000000000001        4.7399729816147109E-005   1.1965350834870103E-004
 graz           3           7           2   5.3527287334794698E-015   7.5067576442651320E-014  0.18000000000000002        4.7399719511319507E-005   1.1965350834870103E-004
 graz           3           7           3   2.9720403539838787E-014   7.5067576442651320E-014   1.0000000000000000        4.7372657032528861E-005   1.1965350834870103E-004
 graz           3           7           4   2.9720403539838787E-014   7.5067576442651320E-014   1.0000000000000000        4.7372657032528861E-005   1.1965350834870103E-004
 graz           3           7           5   4.0122615643686524E-016   7.5067576442651320E-014  0.13500000000000001        4.7372740702665406E-006   1.1965350834870103E-004
 graz           3           7           6   4.7579836824214008E-015   7.5067576442651320E-014  0.16000000000000003        4.7399745273390627E-005   1.1965350834870103E-004
 graz           3           8           1   2.5574480429271491E-014   9.0023157439237346E-014  0.85999999999999999        4.7399729816147109E-005   1.4349003423122806E-004
 graz           3           8           2   2.6763985328349013E-014   9.0023157439237346E-014  0.90000000000000002        4.7399719511319507E-005   1.4349003423122806E-004
 graz           3           8           3   5.9441565892751281E-015   9.0023157439237346E-014  0.20000000000000001        4.7372657032528861E-005   1.4349003423122806E-004
 graz           3           8           4   5.9441565892751281E-015   9.0023157439237346E-014  0.20000000000000001        4.7372657032528861E-005   1.4349003423122806E-004
 graz           3           8           5   2.0061563921707958E-015   9.0023157439237346E-014  0.67500000000000004        4.7372740702665406E-006   1.4349003423122806E-004
 graz           3           8           6   2.3790222110895769E-014   9.0023157439237346E-014  0.80000000000000004        4.7399745273390627E-005   1.4349003423122806E-004
 prey           3          27           1   3.0689311219907496E-014
 prey           3          27           2   3.2116714061828486E-014
 prey           3          27           3   3.5664560129113914E-014
 prey           3          27           4   3.5664560129113914E-014
 prey           3          27           5   2.4073825486076609E-015
 prey           3          27           6   2.8548205793317171E-014
 pred           3          27           7   5.3803353408931563E-014
 pred           3          27           8   7.3207357269244892E-014
 mort           3           1   2.7976025924843378E-011   1.6534391534391535E-006  0.35696196043678285        4.7399729816145910E-005   0.0000000000000000        0.0000000000000000       0.35696196043678285        2.2467343866436316E-009
 mort           3           2   2.7976019842780773E-011   1.6534391534391535E-006  0.35696196043678285        4.7399719511318308E-005   0.0000000000000000        0.0000000000000000       0.35696196043678285        2.2467334097516496E-009
 mort           3           3   2.7960047165063527E-011   1.6534391534391535E-006  0.35696196043678285        4.7372657032527661E-005   0.0000000000000000        0.0000000000000000       0.35696196043678285        2.2441686343214926E-009
 mort           3           4   2.7960047165063527E-011   1.6534391534391535E-006  0.35696196043678285        4.7372657032527661E-005   0.0000000000000000        0.0000000000000000       0.35696196043678285        2.2441686343214926E-009
 mort           3           5   2.7960096548416898E-012   1.6534391534391535E-006  0.35696196043678285        4.7372740702653404E-006   0.0000000000000000        0.0000000000000000       0.35696196043678285        2.2441765616808346E-011
 mort           3           6   2.7976035047938531E-011   1.6534391534391535E-006  0.35696196043678285        4.7399745273389427E-005   0.0000000000000000        0.0000000000000000       0.35696196043678285        2.2467358519822035E-009
 mort           3           7   1.5168576579179372E-010   2.3148148148148148E-007  0.35696196043678285        1.8224357471936501E-003   1.0977479472755406E-012   9.2592592592592583E-007  0.35696196043678285        3.3212720526492780E-006
 mort           3           8   1.5168577753114400E-010   2.3148148148148148E-007  0.35696196043678285        1.8224358872232325E-003   1.0977481159697651E-012   9.2592592592592583E-007  0.35696196043678285        3.3212725630391303E-006
 graz           3           7           1   3.2267089395225788E-016   4.7334946237905953E-015  0.17200000000000001        9.2658168490082542E-006   2.3379448071208166E-005
 graz           3           7           2   3.3767881881431668E-016   4.7334946237905953E-015  0.18000000000000002        9.2658161988550882E-006   2.3379448071208166E-005
 graz           3           7           3   1.8738444965964325E-015   4.7334946237905953E-015   1.0000000000000000        9.2552022519490637E-006   2.3379448071208166E-005
 graz           3           7           4   1.8738444965964325E-015   4.7334946237905953E-015   1.0000000000000000        9.2552022519490637E-006   2.3379448071208166E-005
 graz           3           7           5   2.5296915120961112E-017   4.7334946237905953E-015  0.13500000000000001        9.2552075265640338E-007   2.3379448071208166E-005
 graz           3           7           6   3.0015900271019412E-016   4.7334946237905953E-015  0.16000000000000003        9.2658178242380405E-006   2.3379448071208166E-005
 graz           3           8           1   1.6134911259635621E-015   5.6790469440389020E-015  0.85999999999999999        9.2658168490082542E-006   2.8047298737329807E-005
 graz           3           8           2   1.6885371063662532E-015   5.6790469440389020E-015  0.90000000000000002        9.2658161988550882E-006   2.8047298737329807E-005
 graz           3           8           3   3.7480064342479528E-016   5.6790469440389020E-015  0.20000000000000001        9.2552022519490637E-006   2.8047298737329807E-005
 graz           3           8           4   3.7480064342479528E-016   5.6790469440389020E-015  0.20000000000000001        9.2552022519490637E-006   2.8047298737329807E-005
 graz           3           8           5   1.2649528924652054E-016   5.6790469440389020E-015  0.67500000000000004        9.2552075265640338E-007   2.8047298737329807E-005
 graz           3           8           6   1.5009221356129764E-015   5.6790469440389020E-015  0.80000000000000004        9.2658178242380405E-006   2.8047298737329807E-005
 prey           3          28           1   1.9361620199158202E-015
 prey           3          28           2   2.0262159251805698E-015
 prey           3          28           3   2.2486451400212279E-015
 prey           3          28           4   2.2486451400212279E-015
 prey           3          28           5   1.5179220436748166E-016
 prey           3          28           6   1.8010811383231707E-015
 pred           3          28           7   3.3924734467933836E-015
 pred           3          28           8   4.6181976839160818E-015
 mort           3           1   5.3518818511679809E-012   1.6534391534391535E-006  0.34932895786012214        9.2658168490070548E-006   0.0000000000000000        0.0000000000000000       0.34932895786012214        8.5855361879343028E-011
 mort           3           2   5.3518814756432994E-012   1.6534391534391535E-006  0.34932895786012214        9.2658161988538888E-006   0.0000000000000000        0.0000000000000000       0.34932895786012214        8.5855349830943132E-011
 mort           3           3   5.3457509217222274E-012   1.6534391534391535E-006  0.34932895786012214        9.2552022519478643E-006   0.0000000000000000        0.0000000000000000       0.34932895786012214        8.5658768724460824E-011
 mort           3           4   5.3457509217222274E-012   1.6534391534391535E-006  0.34932895786012214        9.2552022519478643E-006   0.0000000000000000        0.0000000000000000       0.34932895786012214        8.5658768724460824E-011
 mort           3           5   5.3457539683028782E-013   1.6534391534391535E-006  0.34932895786012214        9.2552075265520335E-007   0.0000000000000000        0.0000000000000000       0.34932895786012214        8.5658866359545413E-013
 mort           3           6   5.3518824144550262E-012   1.6534391534391535E-006  0.34932895786012214        9.2658178242368412E-006   0.0000000000000000        0.0000000000000000       0.34932895786012214        8.5855379951945146E-011
 mort           3           7   4.8733399277253894E-011   2.3148148148148148E-007  0.34932895786012214        6.0121899542108339E-004   1.1691661147689980E-013   9.2592592592592583E-007  0.34932895786012214        3.6146428045513666E-007
 mort           3           8   4.8733399995045169E-011   2.3148148148148148E-007  0.34932895786012214        6.0121900425520746E-004   1.1691661491277216E-013   9.2592592592592583E-007  0.34932895786012214        3.6146429107762317E-007
 graz           3           7           1   1.3833434437373837E-017   2.0281525090799044E-016  0.17200000000000001        9.2947912946559088E-007   2.3438978597884480E-006
 graz           3           7           2   1.4476849558386221E-017   2.0281525090799044E-016  0.18000000000000002        9.2947910158707203E-007   2.3438978597884480E-006
 graz           3           7           3   8.0276461368282991E-017   2.0281525090799044E-016   1.0000000000000000        9.2774002522063531E-007   2.3438978597884480E-006
 graz           3           7           4   8.0276461368282991E-017   2.0281525090799044E-016   1.0000000000000000        9.2774002522063531E-007   2.3438978597884480E-006
 graz           3           7           5   1.0837324921781758E-018   2.0281525090799044E-016  0.13500000000000001        9.2774025096915001E-008   2.3438978597884480E-006
 graz           3           7           6   1.2868311683486220E-017   2.0281525090799044E-016  0.16000000000000003        9.2947917128336968E-007   2.3438978597884480E-006
 graz           3           8           1   6.9226543037911678E-017   2.4363117112576512E-016  0.85999999999999999        9.2947912946559088E-007   2.8131850568241406E-006
 graz           3           8           2   7.2446380076042220E-017   2.4363117112576512E-016  0.90000000000000002        9.2947910158707203E-007   2.8131850568241406E-006
 graz           3           8           3   1.6069073614369036E-017   2.4363117112576512E-016  0.20000000000000001        9.2774002522063531E-007   2.8131850568241406E-006
 graz           3           8           4   1.6069073614369036E-017   2.4363117112576512E-016  0.20000000000000001        9.2774002522063531E-007   2.8131850568241406E-006
 graz           3           8           5   5.4233136645131113E-018   2.4363117112576512E-016  0.67500000000000004        9.2774025096915001E-008   2.8131850568241406E-006
 graz           3           8           6   6.4396787118560036E-017   2.4363117112576512E-016  0.80000000000000004        9.2947917128336968E-007   2.8131850568241406E-006
 prey           3          29           1   8.3059977475285510E-017
 prey           3          29           2   8.6923229634428446E-017
 prey           3          29           3   9.6345534982652030E-017
 prey           3          29           4   9.6345534982652030E-017
 prey           3          29           5   6.5070461566912875E-018
 prey           3          29           6   7.7265098802046261E-017
 pred           3          29           7   1.4534726945782256E-016
 pred           3          29           8   1.9811875162348595E-016
 mort           3           1   5.2796400477131882E-013   1.6534391534391535E-006  0.34353932214669136        9.2947912946439084E-007   0.0000000000000000        0.0000000000000000       0.34353932214669136        8.6393145210988184E-013
 mort           3           2   5.2796398893572441E-013   1.6534391534391535E-006  0.34353932214669136        9.2947910158587199E-007   0.0000000000000000        0.0000000000000000       0.34353932214669136        8.6393140028487975E-013
 mort           3           3   5.2697615640251177E-013   1.6534391534391535E-006  0.34353932214669136        9.2774002521943527E-007   0.0000000000000000        0.0000000000000000       0.34353932214669136        8.6070155439415835E-013
 mort           3           4   5.2697615640251177E-013   1.6534391534391535E-006  0.34353932214669136        9.2774002521943527E-007   0.0000000000000000        0.0000000000000000       0.34353932214669136        8.6070155439415835E-013
 mort           3           5   5.2697628462635698E-014   1.6534391534391535E-006  0.34353932214669136        9.2774025095715006E-008   0.0000000000000000        0.0000000000000000       0.34353932214669136        8.6070197324603586E-015
 mort           3           6   5.2796402852471070E-013   1.6534391534391535E-006  0.34353932214669136        9.2947917128216964E-007   0.0000000000000000        0.0000000000000000       0.34353932214669136        8.6393152984738886E-013
 mort           3           7   2.0895763550349806E-011   2.3148148148148148E-007  0.34353932214669136        2.6248820210611419E-004   2.1916554276149941E-014   9.2592592592592583E-007  0.34353932214669136        6.8900056244900247E-008
 mort           3           8   2.0895763580610603E-011   2.3148148148148148E-007  0.34353932214669136        2.6248820248584570E-004   2.1916554339561603E-014   9.2592592592592583E-007  0.34353932214669136        6.8900056444250338E-008
 graz           3           7           1   3.8717000144544779E-019   5.6801830279384325E-018  0.17200000000000001        1.1008864853656422E-007   2.7779960056837937E-007
 graz           3           7           2   4.0517790559970823E-019   5.6801830279384325E-018  0.18000000000000002        1.1008864775141605E-007   2.7779960056837937E-007
 graz           3           7           3   2.2486600319986332E-018   5.6801830279384325E-018   1.0000000000000000        1.0997477645188132E-007   2.7779960056837937E-007
 graz           3           7           4   2.2486600319986332E-018   5.6801830279384325E-018   1.0000000000000000        1.0997477645188132E-007   2.7779960056837937E-007
 graz           3           7           5   3.0356912163571814E-020   5.6801830279384325E-018  0.13500000000000001        1.0997478272495883E-008   2.7779960056837937E-007
 graz           3           7           6   3.6015814473243837E-019   5.6801830279384325E-018  0.16000000000000003        1.1008864971428652E-007   2.7779960056837937E-007
 graz           3           8           1   1.9503901374162320E-018   6.8649569872867788E-018  0.85999999999999999        1.1008864853656422E-007   3.3324014890383619E-007
 graz           3           8           2   2.0411059432040810E-018   6.8649569872867788E-018  0.90000000000000002        1.1008864775141605E-007   3.3324014890383619E-007
 graz           3           8           3   4.5310993438939317E-019   6.8649569872867788E-018  0.20000000000000001        1.0997477645188132E-007   3.3324014890383619E-007
 graz           3           8           4   4.5310993438939317E-019   6.8649569872867788E-018  0.20000000000000001        1.0997477645188132E-007   3.3324014890383619E-007
 graz           3           8           5   1.5292461157940123E-019   6.8649569872867788E-018  0.67500000000000004        1.0997478272495883E-008   3.3324014890383619E-007
 graz           3           8           6   1.8143164263082778E-018   6.8649569872867788E-018  0.80000000000000004        1.1008864971428652E-007   3.3324014890383619E-007
 prey           3          30           1   2.3375601388616799E-018
 prey           3          30           2   2.4462838488037892E-018
 prey           3          30           3   2.7017699663880263E-018
 prey           3          30           4   2.7017699663880263E-018
 prey           3          30           5   1.8328152374297305E-019
 prey           3          30           6   2.1744745710407163E-018
 pred           3          30           7   4.0710012367742792E-018
 pred           3          30           8   5.5825875767073020E-018
 mort           3           1   6.1740088258089723E-014   1.6534391534391535E-006  0.33918488304902433        1.1008864853536423E-007   0.0000000000000000        0.0000000000000000       0.33918488304902433        1.2119510536342952E-014
 mort           3           2   6.1740087817761690E-014   1.6534391534391535E-006  0.33918488304902433        1.1008864775021605E-007   0.0000000000000000        0.0000000000000000       0.33918488304902433        1.2119510363471150E-014
 mort           3           3   6.1676226337246929E-014   1.6534391534391535E-006  0.33918488304902433        1.0997477645068132E-007   0.0000000000000000        0.0000000000000000       0.33918488304902433        1.2094451455377331E-014
 mort           3           4   6.1676226337246929E-014   1.6534391534391535E-006  0.33918488304902433        1.0997477645068132E-007   0.0000000000000000        0.0000000000000000       0.33918488304902433        1.2094451455377331E-014
 mort           3           5   6.1676229849267212E-015   1.6534391534391535E-006  0.33918488304902433        1.0997478271295884E-008   0.0000000000000000        0.0000000000000000       0.33918488304902433        1.2094452832762511E-016
 mort           3           6   6.1740088918581780E-014   1.6534391534391535E-006  0.33918488304902433        1.1008864971308653E-007   0.0000000000000000        0.0000000000000000       0.33918488304902433        1.2119510795650667E-014
 mort           3           7   5.1301814948553089E-012   2.3148148148148148E-007  0.33918488304902433        6.5323060722153662E-005   1.3401264645667282E-015   9.2592592592592583E-007  0.33918488304902433        4.2671022621101746E-009
 mort           3           8   5.1301814957112615E-012   2.3148148148148148E-007  0.33918488304902433        6.5323060733049731E-005   1.3401264650138021E-015   9.2592592592592583E-007  0.33918488304902433        4.2671022635337036E-009
 graz           3           7           1   3.2020794249117105E-021   4.6978817735720130E-020  0.17200000000000001        1.0328473037997716E-008   2.6063608901534027E-008
 graz           3           7           2   3.3510133493030309E-021   4.6978817735720130E-020  0.18000000000000002        1.0328473030758384E-008   2.6063608901534027E-008
 graz           3           7           3   1.8597986800354160E-020   4.6978817735720130E-020   1.0000000000000000        1.0318068390890140E-008   2.6063608901534027E-008
 graz           3           7           4   1.8597986800354160E-020   4.6978817735720130E-020   1.0000000000000000        1.0318068390890140E-008   2.6063608901534027E-008
 graz           3           7           5   2.5107282286380154E-022   4.6978817735720130E-020  0.13500000000000001        1.0318068434411557E-009   2.6063608901534027E-008
 graz           3           7           6   2.9786785379332715E-021   4.6978817735720130E-020  0.16000000000000003        1.0328473048856717E-008   2.6063608901534027E-008
 graz           3           8           1   1.8282975983578406E-020   6.4352441244737759E-020  0.85999999999999999        1.0328473037997716E-008   3.1264587955124787E-008
 graz           3           8           2   1.9133346946148043E-020   6.4352441244737759E-020  0.90000000000000002        1.0328473030758384E-008   3.1264587955124787E-008
 graz           3           8           3   4.2475716669415058E-021   6.4352441244737759E-020  0.20000000000000001        1.0318068390890140E-008   3.1264587955124787E-008
 graz           3           8           4   4.2475716669415058E-021   6.4352441244737759E-020  0.20000000000000001        1.0318068390890140E-008   3.1264587955124787E-008
 graz           3           8           5   1.4335554436394680E-021   6.4352441244737759E-020  0.67500000000000004        1.0318068434411557E-009   3.1264587955124787E-008
 graz           3           8           6   1.7007419537488837E-020   6.4352441244737759E-020  0.80000000000000004        1.0328473048856717E-008   3.1264587955124787E-008
 prey           3          31           1   2.1485055408490116E-020
 prey           3          31           2   2.2484360295451072E-020
 prey           3          31           3   2.2845558467295666E-020
 prey           3          31           4   2.2845558467295666E-020
 prey           3          31           5   1.6846282665032695E-021
 prey           3          31           6   1.9986098075422110E-020
 pred           3          31           7   3.3669916534571383E-020
 pred           3          31           8   5.2331467329178514E-020
 mort           3           1   5.7736928878201324E-015   1.6534391534391535E-006  0.33808767725033129        1.0328473036797717E-008   0.0000000000000000        0.0000000000000000       0.33808767725033129        1.0667735527185745E-016
 mort           3           2   5.7736928837732917E-015   1.6534391534391535E-006  0.33808767725033129        1.0328473029558384E-008   0.0000000000000000        0.0000000000000000       0.33808767725033129        1.0667735512231495E-016
 mort           3           3   5.7678766130628408E-015   1.6534391534391535E-006  0.33808767725033129        1.0318068389690140E-008   0.0000000000000000        0.0000000000000000       0.33808767725033129        1.0646253529432289E-016
 mort           3           4   5.7678766130628408E-015   1.6534391534391535E-006  0.33808767725033129        1.0318068389690140E-008   0.0000000000000000        0.0000000000000000       0.33808767725033129        1.0646253529432289E-016
 mort           3           5   5.7678766313543542E-016   1.6534391534391535E-006  0.33808767725033129        1.0318068422411557E-009   0.0000000000000000        0.0000000000000000       0.33808767725033129        1.0646253596956651E-018
 mort           3           6   5.7736928938903934E-015   1.6534391534391535E-006  0.33808767725033129        1.0328473047656717E-008   0.0000000000000000        0.0000000000000000       0.33808767725033129        1.0667735549617125E-016
 mort           3           7   8.0174145657655520E-013   2.3148148148148148E-007  0.33808767725033129        1.0244032567587652E-005   3.2850916264397218E-017   9.2592592592592583E-007  0.33808767725033129        1.0494020324579646E-010
 mort           3           8   8.0174145658708681E-013   2.3148148148148148E-007  0.33808767725033129        1.0244032567722210E-005   3.2850916265260226E-017   9.2592592592592583E-007  0.33808767725033129        1.0494020324855329E-010
 graz           3           7           1   0.0000000000000000        0.0000000000000000       0.17200000000000001        6.9109977501226166E-010   1.2000000000000000E-008
 graz           3           7           2   0.0000000000000000        0.0000000000000000       0.18000000000000002        6.9109977501207079E-010   1.2000000000000000E-008
 graz           3           7           3   0.0000000000000000        0.0000000000000000        1.0000000000000000        6.9009458616239814E-010   1.2000000000000000E-008
 graz           3           7           4   0.0000000000000000        0.0000000000000000        1.0000000000000000        6.9009458616239814E-010   1.2000000000000000E-008
 graz           3           7           5   0.0000000000000000        0.0000000000000000       0.13500000000000001        6.9009458620556182E-011   1.2000000000000000E-008
 graz           3           7           6   0.0000000000000000        0.0000000000000000       0.16000000000000003        6.9109977501254797E-010   1.2000000000000000E-008
 graz           3           8           1   0.0000000000000000        0.0000000000000000       0.85999999999999999        6.9109977501226166E-010   1.2000000000000000E-008
 graz           3           8           2   0.0000000000000000        0.0000000000000000       0.90000000000000002        6.9109977501207079E-010   1.2000000000000000E-008
 graz           3           8           3   0.0000000000000000        0.0000000000000000       0.20000000000000001        6.9009458616239814E-010   1.2000000000000000E-008
 graz           3           8           4   0.0000000000000000        0.0000000000000000       0.20000000000000001        6.9009458616239814E-010   1.2000000000000000E-008
 graz           3           8           5   0.0000000000000000        0.0000000000000000       0.67500000000000004        6.9009458620556182E-011   1.2000000000000000E-008
 graz           3           8           6   0.0000000000000000        0.0000000000000000       0.80000000000000004        6.9109977501254797E-010   1.2000000000000000E-008
 prey           3          32           1   0.0000000000000000     
 prey           3          32           2   0.0000000000000000     
 prey           3          32           3   0.0000000000000000     
 prey           3          32           4   0.0000000000000000     
 prey           3          32           5   0.0000000000000000     
 prey           3          32           6   0.0000000000000000     
 pred           3          32           7   0.0000000000000000     
 pred           3          32           8   0.0000000000000000     
 mort           3           1   3.8387218339641441E-016   1.6534391534391535E-006  0.33593687238164205        6.9109977381226165E-010   0.0000000000000000        0.0000000000000000       0.33593687238164205        4.7761889736335925E-019
 mort           3           2   3.8387218339630841E-016   1.6534391534391535E-006  0.33593687238164205        6.9109977381207078E-010   0.0000000000000000        0.0000000000000000       0.33593687238164205        4.7761889736309540E-019
 mort           3           3   3.8331385006576621E-016   1.6534391534391535E-006  0.33593687238164205        6.9009458496239812E-010   0.0000000000000000        0.0000000000000000       0.33593687238164205        4.7623053619442453E-019
 mort           3           4   3.8331385006576621E-016   1.6534391534391535E-006  0.33593687238164205        6.9009458496239812E-010   0.0000000000000000        0.0000000000000000       0.33593687238164205        4.7623053619442453E-019
 mort           3           5   3.8331384409086879E-017   1.6534391534391535E-006  0.33593687238164205        6.9009457420556181E-011   0.0000000000000000        0.0000000000000000       0.33593687238164205        4.7623052134795566E-021
 mort           3           6   3.8387218339657342E-016   1.6534391534391535E-006  0.33593687238164205        6.9109977381254796E-010   0.0000000000000000        0.0000000000000000       0.33593687238164205        4.7761889736375493E-019
 mort           3           7   6.6014774328127514E-014   2.3148148148148148E-007  0.33593687238164205        8.4891799667078645E-007   2.2416375870663634E-019   9.2592592592592583E-007  0.33593687238164205        7.2066176507154144E-013
 mort           3           8   6.6014774328127514E-014   2.3148148148148148E-007  0.33593687238164205        8.4891799667078645E-007   2.2416375870663634E-019   9.2592592592592583E-007  0.33593687238164205        7.2066176507154144E-013
 graz           3           7           1   0.0000000000000000        0.0000000000000000       0.17200000000000001        4.6213845046381230E-011   1.2000000000000000E-008
 graz           3           7           2   0.0000000000000000        0.0000000000000000       0.18000000000000002        4.6213845046381230E-011   1.2000000000000000E-008
 graz           3           7           3   0.0000000000000000        0.0000000000000000        1.0000000000000000        4.6146607308093859E-011   1.2000000000000000E-008
 graz           3           7           4   0.0000000000000000        0.0000000000000000        1.0000000000000000        4.6146607308093859E-011   1.2000000000000000E-008
 graz           3           7           5   0.0000000000000000        0.0000000000000000       0.13500000000000001        4.6146607350740417E-012   1.2000000000000000E-008
 graz           3           7           6   0.0000000000000000        0.0000000000000000       0.16000000000000003        4.6213845046381230E-011   1.2000000000000000E-008
 graz           3           8           1   0.0000000000000000        0.0000000000000000       0.85999999999999999        4.6213845046381230E-011   1.2000000000000000E-008
 graz           3           8           2   0.0000000000000000        0.0000000000000000       0.90000000000000002        4.6213845046381230E-011   1.2000000000000000E-008
 graz           3           8           3   0.0000000000000000        0.0000000000000000       0.20000000000000001        4.6146607308093859E-011   1.2000000000000000E-008
 graz           3           8           4   0.0000000000000000        0.0000000000000000       0.20000000000000001        4.6146607308093859E-011   1.2000000000000000E-008
 graz           3           8           5   0.0000000000000000        0.0000000000000000       0.67500000000000004        4.6146607350740417E-012   1.2000000000000000E-008
 graz           3           8           6   0.0000000000000000        0.0000000000000000       0.80000000000000004        4.6213845046381230E-011   1.2000000000000000E-008
 prey           3          33           1   0.0000000000000000     
 prey           3          33           2   0.0000000000000000     
 prey           3          33           3   0.0000000000000000     
 prey           3          33           4   0.0000000000000000     
 prey           3          33           5   0.0000000000000000     
 prey           3          33           6   0.0000000000000000     
 pred           3          33           7   0.0000000000000000     
 pred           3          33           8   0.0000000000000000     
 mort           3           1   2.5370505786169313E-017   1.6534391534391535E-006  0.33202349387945834        4.6213843846381229E-011   0.0000000000000000        0.0000000000000000       0.33202349387945834        2.1357193630577081E-021
 mort           3           2   2.5370505786169313E-017   1.6534391534391535E-006  0.33202349387945834        4.6213843846381229E-011   0.0000000000000000        0.0000000000000000       0.33202349387945834        2.1357193630577081E-021
 mort           3           3   2.5333593569260048E-017   1.6534391534391535E-006  0.33202349387945834        4.6146606108093858E-011   0.0000000000000000        0.0000000000000000       0.33202349387945834        2.1295092552955653E-021
 mort           3           4   2.5333593569260048E-017   1.6534391534391535E-006  0.33202349387945834        4.6146606108093858E-011   0.0000000000000000        0.0000000000000000       0.33202349387945834        2.1295092552955653E-021
 mort           3           5   2.5333587663681223E-018   1.6534391534391535E-006  0.33202349387945834        4.6146595350740418E-012   0.0000000000000000        0.0000000000000000       0.33202349387945834        2.1295082624649772E-023
 mort           3           6   2.5370505786169313E-017   1.6534391534391535E-006  0.33202349387945834        4.6213843846381229E-011   0.0000000000000000        0.0000000000000000       0.33202349387945834        2.1357193630577081E-021
 mort           3           7   2.7271700902110429E-015   2.3148148148148148E-007  0.33202349387945834        3.5483552624167791E-008   3.8707867870453311E-022   9.2592592592592583E-007  0.33202349387945834        1.2590825068320850E-015
 mort           3           8   2.7271700902110429E-015   2.3148148148148148E-007  0.33202349387945834        3.5483552624167791E-008   3.8707867870453311E-022   9.2592592592592583E-007  0.33202349387945834        1.2590825068320850E-015
 graz           3           7           1   0.0000000000000000        0.0000000000000000       0.17200000000000001        1.7412968235694451E-012   1.2000000000000000E-008
 graz           3           7           2   0.0000000000000000        0.0000000000000000       0.18000000000000002        1.7412968235694451E-012   1.2000000000000000E-008
 graz           3           7           3   0.0000000000000000        0.0000000000000000        1.0000000000000000        1.7375873520879411E-012   1.2000000000000000E-008
 graz           3           7           4   0.0000000000000000        0.0000000000000000        1.0000000000000000        1.7375873520879411E-012   1.2000000000000000E-008
 graz           3           7           5   0.0000000000000000        0.0000000000000000       0.13500000000000001        1.7375873940337946E-013   1.2000000000000000E-008
 graz           3           7           6   0.0000000000000000        0.0000000000000000       0.16000000000000003        1.7412968235694451E-012   1.2000000000000000E-008
 graz           3           8           1   0.0000000000000000        0.0000000000000000       0.85999999999999999        1.7412968235694451E-012   1.2000000000000000E-008
 graz           3           8           2   0.0000000000000000        0.0000000000000000       0.90000000000000002        1.7412968235694451E-012   1.2000000000000000E-008
 graz           3           8           3   0.0000000000000000        0.0000000000000000       0.20000000000000001        1.7375873520879411E-012   1.2000000000000000E-008
 graz           3           8           4   0.0000000000000000        0.0000000000000000       0.20000000000000001        1.7375873520879411E-012   1.2000000000000000E-008
 graz           3           8           5   0.0000000000000000        0.0000000000000000       0.67500000000000004        1.7375873940337946E-013   1.2000000000000000E-008
 graz           3           8           6   0.0000000000000000        0.0000000000000000       0.80000000000000004        1.7412968235694451E-012   1.2000000000000000E-008
 prey           3          34           1   0.0000000000000000     
 prey           3          34           2   0.0000000000000000     
 prey           3          34           3   0.0000000000000000     
 prey           3          34           4   0.0000000000000000     
 prey           3          34           5   0.0000000000000000     
 prey           3          34           6   0.0000000000000000     
 pred           3          34           7   0.0000000000000000     
 pred           3          34           8   0.0000000000000000     
 mort           3           1   9.4021589714091720E-019   1.6534391534391535E-006  0.32656291493180140        1.7412956235694450E-012   0.0000000000000000        0.0000000000000000       0.32656291493180140        3.0321104486621024E-024
 mort           3           2   9.4021589714091720E-019   1.6534391534391535E-006  0.32656291493180140        1.7412956235694450E-012   0.0000000000000000        0.0000000000000000       0.32656291493180140        3.0321104486621024E-024
 mort           3           3   9.3821296093083740E-019   1.6534391534391535E-006  0.32656291493180140        1.7375861520879411E-012   0.0000000000000000        0.0000000000000000       0.32656291493180140        3.0192056359277773E-024
 mort           3           4   9.3821296093083740E-019   1.6534391534391535E-006  0.32656291493180140        1.7375861520879411E-012   0.0000000000000000        0.0000000000000000       0.32656291493180140        3.0192056359277773E-024
 mort           3           5   9.3820715209895729E-020   1.6534391534391535E-006  0.32656291493180140        1.7375753940337945E-013   0.0000000000000000        0.0000000000000000       0.32656291493180140        3.0191682499516962E-026
 mort           3           6   9.4021589714091720E-019   1.6534391534391535E-006  0.32656291493180140        1.7412956235694450E-012   0.0000000000000000        0.0000000000000000       0.32656291493180140        3.0321104486621024E-024
 mort           3           7   1.0800869635097236E-016   2.3148148148148148E-007  0.32656291493180140        1.4288136963345018E-009   6.1729721515000364E-025   9.2592592592592583E-007  0.32656291493180140        2.0415085788330619E-018
 mort           3           8   1.0800869635097236E-016   2.3148148148148148E-007  0.32656291493180140        1.4288136963345018E-009   6.1729721515000364E-025   9.2592592592592583E-007  0.32656291493180140        2.0415085788330619E-018
 graz           3           7           1   0.0000000000000000        0.0000000000000000       0.17200000000000001        4.0110455043252643E-014   1.2000000000000000E-008
 graz           3           7           2   0.0000000000000000        0.0000000000000000       0.18000000000000002        4.0110455043252643E-014   1.2000000000000000E-008
 graz           3           7           3   0.0000000000000000        0.0000000000000000        1.0000000000000000        3.9965293664972320E-014   1.2000000000000000E-008
 graz           3           7           4   0.0000000000000000        0.0000000000000000        1.0000000000000000        3.9965293664972320E-014   1.2000000000000000E-008
 graz           3           7           5   0.0000000000000000        0.0000000000000000       0.13500000000000001        3.9965334689773007E-015   1.2000000000000000E-008
 graz           3           7           6   0.0000000000000000        0.0000000000000000       0.16000000000000003        4.0110455043252643E-014   1.2000000000000000E-008
 graz           3           8           1   0.0000000000000000        0.0000000000000000       0.85999999999999999        4.0110455043252643E-014   1.2000000000000000E-008
 graz           3           8           2   0.0000000000000000        0.0000000000000000       0.90000000000000002        4.0110455043252643E-014   1.2000000000000000E-008
 graz           3           8           3   0.0000000000000000        0.0000000000000000       0.20000000000000001        3.9965293664972320E-014   1.2000000000000000E-008
 graz           3           8           4   0.0000000000000000        0.0000000000000000       0.20000000000000001        3.9965293664972320E-014   1.2000000000000000E-008
 graz           3           8           5   0.0000000000000000        0.0000000000000000       0.67500000000000004        3.9965334689773007E-015   1.2000000000000000E-008
 graz           3           8           6   0.0000000000000000        0.0000000000000000       0.80000000000000004        4.0110455043252643E-014   1.2000000000000000E-008
 prey           3          35           1   0.0000000000000000     
 prey           3          35           2   0.0000000000000000     
 prey           3          35           3   0.0000000000000000     
 prey           3          35           4   0.0000000000000000     
 prey           3          35           5   0.0000000000000000     
 prey           3          35           6   0.0000000000000000     
 pred           3          35           7   0.0000000000000000     
 pred           3          35           8   0.0000000000000000     
 mort           3           1   2.1181068177347613E-020   1.6534391534391535E-006  0.31938538922863496        4.0109255043252644E-014   0.0000000000000000        0.0000000000000000       0.31938538922863496        1.6087523401246876E-027
 mort           3           2   2.1181068177347613E-020   1.6534391534391535E-006  0.31938538922863496        4.0109255043252644E-014   0.0000000000000000        0.0000000000000000       0.31938538922863496        1.6087523401246876E-027
 mort           3           3   2.1104410731410072E-020   1.6534391534391535E-006  0.31938538922863496        3.9964093664972322E-014   0.0000000000000000        0.0000000000000000       0.31938538922863496        1.5971287824626809E-027
 mort           3           4   2.1104410731410072E-020   1.6534391534391535E-006  0.31938538922863496        3.9964093664972322E-014   0.0000000000000000        0.0000000000000000       0.31938538922863496        1.5971287824626809E-027
 mort           3           5   2.1098729085441593E-021   1.6534391534391535E-006  0.31938538922863496        3.9953334689773006E-015   0.0000000000000000        0.0000000000000000       0.31938538922863496        1.5962689528330191E-029
 mort           3           6   2.1181068177347613E-020   1.6534391534391535E-006  0.31938538922863496        4.0109255043252644E-014   0.0000000000000000        0.0000000000000000       0.31938538922863496        1.6087523401246876E-027
 mort           3           7   1.7839506114141330E-016   2.3148148148148148E-007  0.31938538922863496        2.4129677896468874E-009   1.7218461288462324E-024   9.2592592592592583E-007  0.31938538922863496        5.8224135538733853E-018
 mort           3           8   1.7839506114141330E-016   2.3148148148148148E-007  0.31938538922863496        2.4129677896468874E-009   1.7218461288462324E-024   9.2592592592592583E-007  0.31938538922863496        5.8224135538733853E-018
(PID.TID 0000.0001) totgC   -1.6560958869452041E+06  -5.3748723820078110E-08
(PID.TID 0000.0001) totgN    1.9121825252546012E+03   6.2060036048437885E-11
(PID.TID 0000.0001) totgP   -5.7158208609844321E-12  -1.8550742096750243E-25
(PID.TID 0000.0001) totgFe   2.9652258538192729E+01   9.6236641089104265E-13
(PID.TID 0000.0001) totgSi  -1.0893478523885292E-10  -3.5354871250859864E-24
(PID.TID 0000.0001) totgA   -6.1996564881711511E+05  -2.0121034475650021E-08
(PID.TID 0000.0001) totgO   -3.1068801778939669E+06  -1.0083404345126742E-07
 fe   3.3139804199400513E-006
(PID.TID 0000.0001) // =======================================================
(PID.TID 0000.0001) // Begin MONITOR dynamic field statistics
(PID.TID 0000.0001) // =======================================================
(PID.TID 0000.0001) %MON time_tsnumber                =                     3
(PID.TID 0000.0001) %MON time_secondsf                =   1.0800000000000000E+04
(PID.TID 0000.0001) %MON dynstat_eta_max              =   0.0000000000000000E+00
(PID.TID 0000.0001) %MON dynstat_eta_min              =   0.0000000000000000E+00
(PID.TID 0000.0001) %MON dynstat_eta_mean             =   0.0000000000000000E+00
(PID.TID 0000.0001) %MON dynstat_eta_sd               =   0.0000000000000000E+00
(PID.TID 0000.0001) %MON dynstat_eta_del2             =   0.0000000000000000E+00
(PID.TID 0000.0001) %MON dynstat_uvel_max             =   0.0000000000000000E+00
(PID.TID 0000.0001) %MON dynstat_uvel_min             =   0.0000000000000000E+00
(PID.TID 0000.0001) %MON dynstat_uvel_mean            =   0.0000000000000000E+00
(PID.TID 0000.0001) %MON dynstat_uvel_sd              =   0.0000000000000000E+00
(PID.TID 0000.0001) %MON dynstat_uvel_del2            =   0.0000000000000000E+00
(PID.TID 0000.0001) %MON dynstat_vvel_max             =   0.0000000000000000E+00
(PID.TID 0000.0001) %MON dynstat_vvel_min             =   0.0000000000000000E+00
(PID.TID 0000.0001) %MON dynstat_vvel_mean            =   0.0000000000000000E+00
(PID.TID 0000.0001) %MON dynstat_vvel_sd              =   0.0000000000000000E+00
(PID.TID 0000.0001) %MON dynstat_vvel_del2            =   0.0000000000000000E+00
(PID.TID 0000.0001) %MON dynstat_wvel_max             =   0.0000000000000000E+00
(PID.TID 0000.0001) %MON dynstat_wvel_min             =   0.0000000000000000E+00
(PID.TID 0000.0001) %MON dynstat_wvel_mean            =   0.0000000000000000E+00
(PID.TID 0000.0001) %MON dynstat_wvel_sd              =   0.0000000000000000E+00
(PID.TID 0000.0001) %MON dynstat_wvel_del2            =   0.0000000000000000E+00
(PID.TID 0000.0001) %MON dynstat_theta_max            =   8.2616915570573877E+00
(PID.TID 0000.0001) %MON dynstat_theta_min            =   1.5167018429027368E+00
(PID.TID 0000.0001) %MON dynstat_theta_mean           =   2.8238551634290574E+00
(PID.TID 0000.0001) %MON dynstat_theta_sd             =   1.3641186209026439E+00
(PID.TID 0000.0001) %MON dynstat_theta_del2           =   0.0000000000000000E+00
(PID.TID 0000.0001) %MON dynstat_salt_max             =   3.5000000000000000E+01
(PID.TID 0000.0001) %MON dynstat_salt_min             =   3.5000000000000000E+01
(PID.TID 0000.0001) %MON dynstat_salt_mean            =   3.4999999999999986E+01
(PID.TID 0000.0001) %MON dynstat_salt_sd              =   1.4210854715202004E-14
(PID.TID 0000.0001) %MON dynstat_salt_del2            =   0.0000000000000000E+00
(PID.TID 0000.0001) %MON dynstat_sst_max              =   8.2616915570573877E+00
(PID.TID 0000.0001) %MON dynstat_sst_min              =   8.2616915570573877E+00
(PID.TID 0000.0001) %MON dynstat_sst_mean             =   8.2616915570573877E+00
(PID.TID 0000.0001) %MON dynstat_sst_sd               =   0.0000000000000000E+00
(PID.TID 0000.0001) %MON dynstat_sst_del2             =   0.0000000000000000E+00
(PID.TID 0000.0001) %MON dynstat_sss_max              =   3.5000000000000000E+01
(PID.TID 0000.0001) %MON dynstat_sss_min              =   3.5000000000000000E+01
(PID.TID 0000.0001) %MON dynstat_sss_mean             =   3.5000000000000000E+01
(PID.TID 0000.0001) %MON dynstat_sss_sd               =   0.0000000000000000E+00
(PID.TID 0000.0001) %MON dynstat_sss_del2             =   0.0000000000000000E+00
(PID.TID 0000.0001) %MON forcing_qnet_max             =   0.0000000000000000E+00
(PID.TID 0000.0001) %MON forcing_qnet_min             =   0.0000000000000000E+00
(PID.TID 0000.0001) %MON forcing_qnet_mean            =   0.0000000000000000E+00
(PID.TID 0000.0001) %MON forcing_qnet_sd              =   0.0000000000000000E+00
(PID.TID 0000.0001) %MON forcing_qnet_del2            =   0.0000000000000000E+00
(PID.TID 0000.0001) %MON forcing_qsw_max              =   0.0000000000000000E+00
(PID.TID 0000.0001) %MON forcing_qsw_min              =   0.0000000000000000E+00
(PID.TID 0000.0001) %MON forcing_qsw_mean             =   0.0000000000000000E+00
(PID.TID 0000.0001) %MON forcing_qsw_sd               =   0.0000000000000000E+00
(PID.TID 0000.0001) %MON forcing_qsw_del2             =   0.0000000000000000E+00
(PID.TID 0000.0001) %MON forcing_empmr_max            =   0.0000000000000000E+00
(PID.TID 0000.0001) %MON forcing_empmr_min            =   0.0000000000000000E+00
(PID.TID 0000.0001) %MON forcing_empmr_mean           =   0.0000000000000000E+00
(PID.TID 0000.0001) %MON forcing_empmr_sd             =   0.0000000000000000E+00
(PID.TID 0000.0001) %MON forcing_empmr_del2           =   0.0000000000000000E+00
(PID.TID 0000.0001) %MON forcing_fu_max               =   2.2648139112525518E+00
(PID.TID 0000.0001) %MON forcing_fu_min               =   2.2648139112525518E+00
(PID.TID 0000.0001) %MON forcing_fu_mean              =   2.2648139112525518E+00
(PID.TID 0000.0001) %MON forcing_fu_sd                =   0.0000000000000000E+00
(PID.TID 0000.0001) %MON forcing_fu_del2              =   0.0000000000000000E+00
(PID.TID 0000.0001) %MON forcing_fv_max               =  -4.1325000251332922E-01
(PID.TID 0000.0001) %MON forcing_fv_min               =  -4.1325000251332922E-01
(PID.TID 0000.0001) %MON forcing_fv_mean              =  -4.1325000251332922E-01
(PID.TID 0000.0001) %MON forcing_fv_sd                =   0.0000000000000000E+00
(PID.TID 0000.0001) %MON forcing_fv_del2              =   0.0000000000000000E+00
(PID.TID 0000.0001) %MON advcfl_uvel_max              =   0.0000000000000000E+00
(PID.TID 0000.0001) %MON advcfl_vvel_max              =   0.0000000000000000E+00
(PID.TID 0000.0001) %MON advcfl_wvel_max              =   0.0000000000000000E+00
(PID.TID 0000.0001) %MON advcfl_W_hf_max              =   0.0000000000000000E+00
(PID.TID 0000.0001) %MON pe_b_mean                    =   0.0000000000000000E+00
(PID.TID 0000.0001) %MON ke_max                       =   0.0000000000000000E+00
(PID.TID 0000.0001) %MON ke_mean                      =   0.0000000000000000E+00
(PID.TID 0000.0001) %MON ke_vol                       =   3.0811817830111180E+13
(PID.TID 0000.0001) %MON vort_r_min                   =   0.0000000000000000E+00
(PID.TID 0000.0001) %MON vort_r_max                   =   0.0000000000000000E+00
(PID.TID 0000.0001) %MON vort_a_mean                  =  -1.0312619976227577E-04
(PID.TID 0000.0001) %MON vort_a_sd                    =   2.8760747774580336E-12
(PID.TID 0000.0001) %MON vort_p_mean                  =  -1.0312619976227577E-04
(PID.TID 0000.0001) %MON vort_p_sd                    =   2.8760747774580336E-12
(PID.TID 0000.0001) %MON surfExpan_theta_mean         =   0.0000000000000000E+00
(PID.TID 0000.0001) %MON surfExpan_salt_mean          =   0.0000000000000000E+00
(PID.TID 0000.0001) // =======================================================
(PID.TID 0000.0001) // End MONITOR dynamic field statistics
(PID.TID 0000.0001) // =======================================================
(PID.TID 0000.0001) // =======================================================
(PID.TID 0000.0001) // Begin MONITOR ptracer field statistics
(PID.TID 0000.0001) // =======================================================
(PID.TID 0000.0001) %MON trcstat_ptracer01_max        =   2.2359129179163874E+03
(PID.TID 0000.0001) %MON trcstat_ptracer01_min        =   2.0735584867955758E+03
(PID.TID 0000.0001) %MON trcstat_ptracer01_mean       =   2.2089826036569211E+03
(PID.TID 0000.0001) %MON trcstat_ptracer01_sd         =   4.0007072782330461E+01
(PID.TID 0000.0001) %MON trcstat_ptracer01_del2       =   0.0000000000000000E+00
(PID.TID 0000.0001) %MON trcstat_ptracer02_max        =   3.5611244824634253E-01
(PID.TID 0000.0001) %MON trcstat_ptracer02_min        =   3.2890303814987699E-05
(PID.TID 0000.0001) %MON trcstat_ptracer02_mean       =   6.2126217566171524E-03
(PID.TID 0000.0001) %MON trcstat_ptracer02_sd         =   4.2315717594329769E-02
(PID.TID 0000.0001) %MON trcstat_ptracer02_del2       =   0.0000000000000000E+00
(PID.TID 0000.0001) %MON trcstat_ptracer03_max        =   2.5454342764558952E-01
(PID.TID 0000.0001) %MON trcstat_ptracer03_min        =   6.6227843799828660E-04
(PID.TID 0000.0001) %MON trcstat_ptracer03_mean       =   1.7419393230497085E-02
(PID.TID 0000.0001) %MON trcstat_ptracer03_sd         =   3.7040087930757762E-02
(PID.TID 0000.0001) %MON trcstat_ptracer03_del2       =   0.0000000000000000E+00
(PID.TID 0000.0001) %MON trcstat_ptracer04_max        =   3.4239144837974962E+01
(PID.TID 0000.0001) %MON trcstat_ptracer04_min        =   1.4609115547593660E+01
(PID.TID 0000.0001) %MON trcstat_ptracer04_mean       =   2.9892559821075430E+01
(PID.TID 0000.0001) %MON trcstat_ptracer04_sd         =   3.8825116795045256E+00
(PID.TID 0000.0001) %MON trcstat_ptracer04_del2       =   0.0000000000000000E+00
(PID.TID 0000.0001) %MON trcstat_ptracer05_max        =   2.3348114242488260E+00
(PID.TID 0000.0001) %MON trcstat_ptracer05_min        =   1.1991257329275411E+00
(PID.TID 0000.0001) %MON trcstat_ptracer05_mean       =   2.0209550960275502E+00
(PID.TID 0000.0001) %MON trcstat_ptracer05_sd         =   2.4241793542945930E-01
(PID.TID 0000.0001) %MON trcstat_ptracer05_del2       =   0.0000000000000000E+00
(PID.TID 0000.0001) %MON trcstat_ptracer06_max        =   9.3254130980524522E+01
(PID.TID 0000.0001) %MON trcstat_ptracer06_min        =   3.4195320046750362E+00
(PID.TID 0000.0001) %MON trcstat_ptracer06_mean       =   6.1182599456397988E+01
(PID.TID 0000.0001) %MON trcstat_ptracer06_sd         =   2.6240950330172616E+01
(PID.TID 0000.0001) %MON trcstat_ptracer06_del2       =   0.0000000000000000E+00
(PID.TID 0000.0001) %MON trcstat_ptracer07_max        =   8.1833796624477249E-04
(PID.TID 0000.0001) %MON trcstat_ptracer07_min        =   2.7142586954797957E-06
(PID.TID 0000.0001) %MON trcstat_ptracer07_mean       =   6.1376298873769167E-04
(PID.TID 0000.0001) %MON trcstat_ptracer07_sd         =   1.7050131544174332E-04
(PID.TID 0000.0001) %MON trcstat_ptracer07_del2       =   0.0000000000000000E+00
(PID.TID 0000.0001) %MON trcstat_ptracer08_max        =   1.2557804119625604E+01
(PID.TID 0000.0001) %MON trcstat_ptracer08_min        =   6.8034135201123060E-09
(PID.TID 0000.0001) %MON trcstat_ptracer08_mean       =   5.3386891589931429E-01
(PID.TID 0000.0001) %MON trcstat_ptracer08_sd         =   1.9386861397406985E+00
(PID.TID 0000.0001) %MON trcstat_ptracer08_del2       =   0.0000000000000000E+00
(PID.TID 0000.0001) %MON trcstat_ptracer09_max        =   1.6744398846986415E+00
(PID.TID 0000.0001) %MON trcstat_ptracer09_min        =   9.0712495121474905E-10
(PID.TID 0000.0001) %MON trcstat_ptracer09_mean       =   7.1186820249982227E-02
(PID.TID 0000.0001) %MON trcstat_ptracer09_sd         =   2.5850521984245528E-01
(PID.TID 0000.0001) %MON trcstat_ptracer09_del2       =   0.0000000000000000E+00
(PID.TID 0000.0001) %MON trcstat_ptracer10_max        =   1.0464837112889981E-01
(PID.TID 0000.0001) %MON trcstat_ptracer10_min        =   5.6695111281730037E-11
(PID.TID 0000.0001) %MON trcstat_ptracer10_mean       =   4.4489077052393992E-03
(PID.TID 0000.0001) %MON trcstat_ptracer10_sd         =   1.6155718155798457E-02
(PID.TID 0000.0001) %MON trcstat_ptracer10_del2       =   0.0000000000000000E+00
(PID.TID 0000.0001) %MON trcstat_ptracer11_max        =   1.0465651751944678E-04
(PID.TID 0000.0001) %MON trcstat_ptracer11_min        =   5.6695507024598061E-14
(PID.TID 0000.0001) %MON trcstat_ptracer11_mean       =   4.4494385060974391E-06
(PID.TID 0000.0001) %MON trcstat_ptracer11_sd         =   1.6157413274512453E-05
(PID.TID 0000.0001) %MON trcstat_ptracer11_del2       =   0.0000000000000000E+00
(PID.TID 0000.0001) %MON trcstat_ptracer12_max        =   1.2587107819131356E+00
(PID.TID 0000.0001) %MON trcstat_ptracer12_min        =   4.6452208309069501E-02
(PID.TID 0000.0001) %MON trcstat_ptracer12_mean       =   4.6827381302306320E-01
(PID.TID 0000.0001) %MON trcstat_ptracer12_sd         =   4.4342186220095875E-01
(PID.TID 0000.0001) %MON trcstat_ptracer12_del2       =   0.0000000000000000E+00
(PID.TID 0000.0001) %MON trcstat_ptracer13_max        =   1.6782841953676658E-01
(PID.TID 0000.0001) %MON trcstat_ptracer13_min        =   6.1956580454485500E-03
(PID.TID 0000.0001) %MON trcstat_ptracer13_mean       =   6.2439207823340670E-02
(PID.TID 0000.0001) %MON trcstat_ptracer13_sd         =   5.9122214085388085E-02
(PID.TID 0000.0001) %MON trcstat_ptracer13_del2       =   0.0000000000000000E+00
(PID.TID 0000.0001) %MON trcstat_ptracer14_max        =   1.0489256604817487E-02
(PID.TID 0000.0001) %MON trcstat_ptracer14_min        =   3.8710172819697878E-04
(PID.TID 0000.0001) %MON trcstat_ptracer14_mean       =   3.9022817377215176E-03
(PID.TID 0000.0001) %MON trcstat_ptracer14_sd         =   3.6951820808419538E-03
(PID.TID 0000.0001) %MON trcstat_ptracer14_del2       =   0.0000000000000000E+00
(PID.TID 0000.0001) %MON trcstat_ptracer15_max        =   5.9323187156994817E-01
(PID.TID 0000.0001) %MON trcstat_ptracer15_min        =   7.8050589058530948E-02
(PID.TID 0000.0001) %MON trcstat_ptracer15_mean       =   3.0104346362137024E-01
(PID.TID 0000.0001) %MON trcstat_ptracer15_sd         =   1.6086065915513001E-01
(PID.TID 0000.0001) %MON trcstat_ptracer15_del2       =   0.0000000000000000E+00
(PID.TID 0000.0001) %MON trcstat_ptracer16_max        =   1.0489296979804830E-05
(PID.TID 0000.0001) %MON trcstat_ptracer16_min        =   3.8735760062075003E-07
(PID.TID 0000.0001) %MON trcstat_ptracer16_mean       =   3.9026223608690053E-06
(PID.TID 0000.0001) %MON trcstat_ptracer16_sd         =   3.6950926189744992E-06
(PID.TID 0000.0001) %MON trcstat_ptracer16_del2       =   0.0000000000000000E+00
(PID.TID 0000.0001) %MON trcstat_ptracer17_max        =   8.2608613263215752E-02
(PID.TID 0000.0001) %MON trcstat_ptracer17_min        =   5.0889826513239337E-03
(PID.TID 0000.0001) %MON trcstat_ptracer17_mean       =   5.5135793968708824E-02
(PID.TID 0000.0001) %MON trcstat_ptracer17_sd         =   1.7430026593718291E-02
(PID.TID 0000.0001) %MON trcstat_ptracer17_del2       =   0.0000000000000000E+00
(PID.TID 0000.0001) %MON trcstat_ptracer18_max        =   2.3510737546244950E+03
(PID.TID 0000.0001) %MON trcstat_ptracer18_min        =   2.2764610439929393E+03
(PID.TID 0000.0001) %MON trcstat_ptracer18_mean       =   2.3233192530526094E+03
(PID.TID 0000.0001) %MON trcstat_ptracer18_sd         =   2.5001392254533272E+01
(PID.TID 0000.0001) %MON trcstat_ptracer18_del2       =   0.0000000000000000E+00
(PID.TID 0000.0001) %MON trcstat_ptracer19_max        =   2.9097963163055709E+02
(PID.TID 0000.0001) %MON trcstat_ptracer19_min        =   1.9290080039179250E+02
(PID.TID 0000.0001) %MON trcstat_ptracer19_mean       =   2.2201954531204476E+02
(PID.TID 0000.0001) %MON trcstat_ptracer19_sd         =   2.3972595339642311E+01
(PID.TID 0000.0001) %MON trcstat_ptracer19_del2       =   0.0000000000000000E+00
(PID.TID 0000.0001) %MON trcstat_ptracer20_max        =   3.0189440143972518E-01
(PID.TID 0000.0001) %MON trcstat_ptracer20_min        =   4.0106757232129587E-14
(PID.TID 0000.0001) %MON trcstat_ptracer20_mean       =   4.5627128459261469E-03
(PID.TID 0000.0001) %MON trcstat_ptracer20_sd         =   2.6040156114449861E-02
(PID.TID 0000.0001) %MON trcstat_ptracer20_del2       =   0.0000000000000000E+00
(PID.TID 0000.0001) %MON trcstat_ptracer21_max        =   3.0164373303230102E-01
(PID.TID 0000.0001) %MON trcstat_ptracer21_min        =   4.0106757232129587E-14
(PID.TID 0000.0001) %MON trcstat_ptracer21_mean       =   4.5599398489932896E-03
(PID.TID 0000.0001) %MON trcstat_ptracer21_sd         =   2.6020094043050244E-02
(PID.TID 0000.0001) %MON trcstat_ptracer21_del2       =   0.0000000000000000E+00
(PID.TID 0000.0001) %MON trcstat_ptracer22_max        =   2.9931297248163641E-01
(PID.TID 0000.0001) %MON trcstat_ptracer22_min        =   3.9889317786339243E-14
(PID.TID 0000.0001) %MON trcstat_ptracer22_mean       =   4.5477736413976474E-03
(PID.TID 0000.0001) %MON trcstat_ptracer22_sd         =   2.5901744948708144E-02
(PID.TID 0000.0001) %MON trcstat_ptracer22_del2       =   0.0000000000000000E+00
(PID.TID 0000.0001) %MON trcstat_ptracer23_max        =   2.9936159890565833E-01
(PID.TID 0000.0001) %MON trcstat_ptracer23_min        =   3.9889317786339243E-14
(PID.TID 0000.0001) %MON trcstat_ptracer23_mean       =   4.5491599806684437E-03
(PID.TID 0000.0001) %MON trcstat_ptracer23_sd         =   2.5908084617079118E-02
(PID.TID 0000.0001) %MON trcstat_ptracer23_del2       =   0.0000000000000000E+00
(PID.TID 0000.0001) %MON trcstat_ptracer24_max        =   2.9399377061291646E-02
(PID.TID 0000.0001) %MON trcstat_ptracer24_min        =   3.9889379265065414E-15
(PID.TID 0000.0001) %MON trcstat_ptracer24_mean       =   4.4933751471984250E-04
(PID.TID 0000.0001) %MON trcstat_ptracer24_sd         =   2.5505922844899723E-03
(PID.TID 0000.0001) %MON trcstat_ptracer24_del2       =   0.0000000000000000E+00
(PID.TID 0000.0001) %MON trcstat_ptracer25_max        =   3.0132070246677162E-01
(PID.TID 0000.0001) %MON trcstat_ptracer25_min        =   4.0106757232129587E-14
(PID.TID 0000.0001) %MON trcstat_ptracer25_mean       =   4.5586041359898253E-03
(PID.TID 0000.0001) %MON trcstat_ptracer25_sd         =   2.6004320000320897E-02
(PID.TID 0000.0001) %MON trcstat_ptracer25_del2       =   0.0000000000000000E+00
(PID.TID 0000.0001) %MON trcstat_ptracer26_max        =   4.5822534152938182E-01
(PID.TID 0000.0001) %MON trcstat_ptracer26_min        =   1.4284248650276384E-09
(PID.TID 0000.0001) %MON trcstat_ptracer26_mean       =   1.5966515470961354E-02
(PID.TID 0000.0001) %MON trcstat_ptracer26_sd         =   5.9050003377656320E-02
(PID.TID 0000.0001) %MON trcstat_ptracer26_del2       =   0.0000000000000000E+00
(PID.TID 0000.0001) %MON trcstat_ptracer27_max        =   4.5855907325586637E-01
(PID.TID 0000.0001) %MON trcstat_ptracer27_min        =   1.4284248650276384E-09
(PID.TID 0000.0001) %MON trcstat_ptracer27_mean       =   1.5970387347471176E-02
(PID.TID 0000.0001) %MON trcstat_ptracer27_sd         =   5.9072314696656289E-02
(PID.TID 0000.0001) %MON trcstat_ptracer27_del2       =   0.0000000000000000E+00
(PID.TID 0000.0001) %MON trcstat_ptracer28_max        =   1.3120999607223324E-01
(PID.TID 0000.0001) %MON trcstat_ptracer28_min        =   2.0053378616064794E-14
(PID.TID 0000.0001) %MON trcstat_ptracer28_mean       =   1.8005522803199376E-03
(PID.TID 0000.0001) %MON trcstat_ptracer28_sd         =   1.0623763846907327E-02
(PID.TID 0000.0001) %MON trcstat_ptracer28_del2       =   0.0000000000000000E+00
(PID.TID 0000.0001) %MON trcstat_ptracer29_max        =   1.3022194574705187E-01
(PID.TID 0000.0001) %MON trcstat_ptracer29_min        =   2.0053378616064794E-14
(PID.TID 0000.0001) %MON trcstat_ptracer29_mean       =   1.7847685406452523E-03
(PID.TID 0000.0001) %MON trcstat_ptracer29_sd         =   1.0535337638282490E-02
(PID.TID 0000.0001) %MON trcstat_ptracer29_del2       =   0.0000000000000000E+00
(PID.TID 0000.0001) %MON trcstat_ptracer30_max        =   5.0927459270158314E-02
(PID.TID 0000.0001) %MON trcstat_ptracer30_min        =   7.9778635572678457E-15
(PID.TID 0000.0001) %MON trcstat_ptracer30_mean       =   6.9665391685088144E-04
(PID.TID 0000.0001) %MON trcstat_ptracer30_sd         =   4.1137179876017402E-03
(PID.TID 0000.0001) %MON trcstat_ptracer30_del2       =   0.0000000000000000E+00
(PID.TID 0000.0001) %MON trcstat_ptracer31_max        =   5.0953369075173408E-02
(PID.TID 0000.0001) %MON trcstat_ptracer31_min        =   7.9778635572678457E-15
(PID.TID 0000.0001) %MON trcstat_ptracer31_mean       =   6.9636122081223020E-04
(PID.TID 0000.0001) %MON trcstat_ptracer31_sd         =   4.1119587253079706E-03
(PID.TID 0000.0001) %MON trcstat_ptracer31_del2       =   0.0000000000000000E+00
(PID.TID 0000.0001) %MON trcstat_ptracer32_max        =   8.9349368318972378E-03
(PID.TID 0000.0001) %MON trcstat_ptracer32_min        =   1.9944689632532707E-15
(PID.TID 0000.0001) %MON trcstat_ptracer32_mean       =   1.2584391645129804E-04
(PID.TID 0000.0001) %MON trcstat_ptracer32_sd         =   7.3076925949102083E-04
(PID.TID 0000.0001) %MON trcstat_ptracer32_del2       =   0.0000000000000000E+00
(PID.TID 0000.0001) %MON trcstat_ptracer33_max        =   1.2695578519584266E-01
(PID.TID 0000.0001) %MON trcstat_ptracer33_min        =   2.0053378616064794E-14
(PID.TID 0000.0001) %MON trcstat_ptracer33_mean       =   1.7312816008711943E-03
(PID.TID 0000.0001) %MON trcstat_ptracer33_sd         =   1.0241453358015400E-02
(PID.TID 0000.0001) %MON trcstat_ptracer33_del2       =   0.0000000000000000E+00
(PID.TID 0000.0001) // =======================================================
(PID.TID 0000.0001) // End MONITOR ptracers field statistics
(PID.TID 0000.0001) // =======================================================
 Computing Diagnostic #    156  TRAC01       Counter:       1   Parms: SMR     MR      
 Computing Diagnostic #    169  TRAC02       Counter:       1   Parms: SMR     MR      
 Computing Diagnostic #    182  TRAC03       Counter:       1   Parms: SMR     MR      
 Computing Diagnostic #    195  TRAC04       Counter:       1   Parms: SMR     MR      
 Computing Diagnostic #    208  TRAC05       Counter:       1   Parms: SMR     MR      
 Computing Diagnostic #    221  TRAC06       Counter:       1   Parms: SMR     MR      
 Computing Diagnostic #    234  TRAC07       Counter:       1   Parms: SMR     MR      
 Computing Diagnostic #    247  TRAC08       Counter:       1   Parms: SMR     MR      
 Computing Diagnostic #    260  TRAC09       Counter:       1   Parms: SMR     MR      
 Computing Diagnostic #    273  TRAC10       Counter:       1   Parms: SMR     MR      
 Computing Diagnostic #    286  TRAC11       Counter:       1   Parms: SMR     MR      
 Computing Diagnostic #    299  TRAC12       Counter:       1   Parms: SMR     MR      
 Computing Diagnostic #    312  TRAC13       Counter:       1   Parms: SMR     MR      
 Computing Diagnostic #    325  TRAC14       Counter:       1   Parms: SMR     MR      
 Computing Diagnostic #    338  TRAC15       Counter:       1   Parms: SMR     MR      
 Computing Diagnostic #    351  TRAC16       Counter:       1   Parms: SMR     MR      
 Computing Diagnostic #    364  TRAC17       Counter:       1   Parms: SMR     MR      
 Computing Diagnostic #    377  TRAC18       Counter:       1   Parms: SMR     MR      
 Computing Diagnostic #    390  TRAC19       Counter:       1   Parms: SMR     MR      
 Computing Diagnostic #    403  TRAC20       Counter:       1   Parms: SMR     MR      
 Computing Diagnostic #    416  TRAC21       Counter:       1   Parms: SMR     MR      
 Computing Diagnostic #    429  TRAC22       Counter:       1   Parms: SMR     MR      
 Computing Diagnostic #    442  TRAC23       Counter:       1   Parms: SMR     MR      
 Computing Diagnostic #    455  TRAC24       Counter:       1   Parms: SMR     MR      
 Computing Diagnostic #    468  TRAC25       Counter:       1   Parms: SMR     MR      
 Computing Diagnostic #    481  TRAC26       Counter:       1   Parms: SMR     MR      
 Computing Diagnostic #    494  TRAC27       Counter:       1   Parms: SMR     MR      
 Computing Diagnostic #    507  TRAC28       Counter:       1   Parms: SMR     MR      
 Computing Diagnostic #    520  TRAC29       Counter:       1   Parms: SMR     MR      
 Computing Diagnostic #    533  TRAC30       Counter:       1   Parms: SMR     MR      
 Computing Diagnostic #    589  PARF         Counter:       1   Parms: SM P    MR      
 Computing Diagnostic #    586  atten        Counter:       1   Parms: SM P    MR      
 Computing Diagnostic #    588  surfPAR      Counter:       1   Parms: SM P    MR      
 Computing Diagnostic #    587  exfPAR       Counter:       1   Parms: SM P    MR      
(PID.TID 0000.0001) // =======================================================
(PID.TID 0000.0001) // Begin MONITOR EXF statistics
(PID.TID 0000.0001) // =======================================================
(PID.TID 0000.0001) %MON exf_tsnumber                 =                     3
(PID.TID 0000.0001) %MON exf_time_sec                 =   1.0800000000000000E+04
(PID.TID 0000.0001) %MON exf_ustress_max              =   0.0000000000000000E+00
(PID.TID 0000.0001) %MON exf_ustress_min              =   0.0000000000000000E+00
(PID.TID 0000.0001) %MON exf_ustress_mean             =   0.0000000000000000E+00
(PID.TID 0000.0001) %MON exf_ustress_sd               =   0.0000000000000000E+00
(PID.TID 0000.0001) %MON exf_ustress_del2             =   0.0000000000000000E+00
(PID.TID 0000.0001) %MON exf_vstress_max              =   0.0000000000000000E+00
(PID.TID 0000.0001) %MON exf_vstress_min              =   0.0000000000000000E+00
(PID.TID 0000.0001) %MON exf_vstress_mean             =   0.0000000000000000E+00
(PID.TID 0000.0001) %MON exf_vstress_sd               =   0.0000000000000000E+00
(PID.TID 0000.0001) %MON exf_vstress_del2             =   0.0000000000000000E+00
(PID.TID 0000.0001) %MON exf_hflux_max                =   0.0000000000000000E+00
(PID.TID 0000.0001) %MON exf_hflux_min                =   0.0000000000000000E+00
(PID.TID 0000.0001) %MON exf_hflux_mean               =   0.0000000000000000E+00
(PID.TID 0000.0001) %MON exf_hflux_sd                 =   0.0000000000000000E+00
(PID.TID 0000.0001) %MON exf_hflux_del2               =   0.0000000000000000E+00
(PID.TID 0000.0001) %MON exf_sflux_max                =   0.0000000000000000E+00
(PID.TID 0000.0001) %MON exf_sflux_min                =   0.0000000000000000E+00
(PID.TID 0000.0001) %MON exf_sflux_mean               =   0.0000000000000000E+00
(PID.TID 0000.0001) %MON exf_sflux_sd                 =   0.0000000000000000E+00
(PID.TID 0000.0001) %MON exf_sflux_del2               =   0.0000000000000000E+00
(PID.TID 0000.0001) %MON exf_uwind_max                =   0.0000000000000000E+00
(PID.TID 0000.0001) %MON exf_uwind_min                =   0.0000000000000000E+00
(PID.TID 0000.0001) %MON exf_uwind_mean               =   0.0000000000000000E+00
(PID.TID 0000.0001) %MON exf_uwind_sd                 =   0.0000000000000000E+00
(PID.TID 0000.0001) %MON exf_uwind_del2               =   0.0000000000000000E+00
(PID.TID 0000.0001) %MON exf_vwind_max                =   0.0000000000000000E+00
(PID.TID 0000.0001) %MON exf_vwind_min                =   0.0000000000000000E+00
(PID.TID 0000.0001) %MON exf_vwind_mean               =   0.0000000000000000E+00
(PID.TID 0000.0001) %MON exf_vwind_sd                 =   0.0000000000000000E+00
(PID.TID 0000.0001) %MON exf_vwind_del2               =   0.0000000000000000E+00
(PID.TID 0000.0001) %MON exf_wspeed_max               =   0.0000000000000000E+00
(PID.TID 0000.0001) %MON exf_wspeed_min               =   0.0000000000000000E+00
(PID.TID 0000.0001) %MON exf_wspeed_mean              =   0.0000000000000000E+00
(PID.TID 0000.0001) %MON exf_wspeed_sd                =   0.0000000000000000E+00
(PID.TID 0000.0001) %MON exf_wspeed_del2              =   0.0000000000000000E+00
(PID.TID 0000.0001) %MON exf_evap_max                 =   0.0000000000000000E+00
(PID.TID 0000.0001) %MON exf_evap_min                 =   0.0000000000000000E+00
(PID.TID 0000.0001) %MON exf_evap_mean                =   0.0000000000000000E+00
(PID.TID 0000.0001) %MON exf_evap_sd                  =   0.0000000000000000E+00
(PID.TID 0000.0001) %MON exf_evap_del2                =   0.0000000000000000E+00
(PID.TID 0000.0001) // =======================================================
(PID.TID 0000.0001) // End MONITOR EXF statistics
(PID.TID 0000.0001) // =======================================================
 EXTERNAL_FIELDS_LOAD,         3 : iP,iLd,i0,i1=   12    1   12    1 ; Wght=  0.4958333333  0.5041666667
 mean surface dic   2073.9443728561778        35.000000000000000     
 limit           4           1           1  0.97187178774190841        8.4418330582210113E-002  0.77413147053487619       0.74722947166141684       0.74845118873528904        2.9358505215857957E-003  0.24861296074312503     
 chl2c           4           1           1  0.24810678678021175        1.1636169081545239E-006   1.0000000000000000     
 limit           4           1           2  0.97187178774190841        8.4418330582210113E-002   1.0000000000000000       0.74722947166141684       0.74845118873528904        2.9358505215857957E-003  0.24861296074312503     
 chl2c           4           1           2  0.24233435525748856        1.1054360627467978E-006   1.0000000000000000     
 limit           4           1           3  0.99017442305380521       0.21192954840050574        1.0000000000000000       0.97985722374165807       0.80346621034516852        2.2937648799309391E-003  0.19424002477490052     
 chl2c           4           1           3   9.0745681395843339E-002   1.5858069460537281E-006   1.0000000000000000     
 limit           4           1           4  0.99098584035605597       0.22682577247989180        1.0000000000000000       0.89814892962570758       0.89237958292886987       0.10762041707113010        0.0000000000000000     
 chl2c           4           1           4   9.0839062308829696E-002   1.6972709069483798E-006   1.0000000000000000     
 limit           4           1           5  0.97187178774190841        2.2531111777356751E-002   1.0000000000000000        1.0000000000000000        0.0000000000000000        0.0000000000000000        0.0000000000000000     
 chl2c           4           1           5  0.10221750231294401        7.3759760826512856E-008   1.0000000000000000     
 limit           4           1           6  0.97737012259451939       0.10334192503021204        1.0000000000000000       0.80267212057310955       0.76410754049135832        2.7531237249927634E-003  0.23313933578364907     
 chl2c           4           1           6  0.22209901939958562        1.1276963381274819E-006   1.0000000000000000     
 consum   6.9074722453166321E-007   9.2856041860849879E-008
 reminPOC   5.5691978718113910E-008  0.45255420315762818        3.8580246913580245E-007  0.31897529142397951     
 reminPOSi   2.8822769235541122E-009  0.45255420315762818        7.7160493827160495E-008   8.2541071696223975E-002
 reminDOC   2.1135762841196946E-006   2.1128861901744890E-010
 limit           4           2           1  0.97186316942031270        8.3847406944767944E-002  0.77424079529123002       0.74727125645385550       0.74820306828373628        2.9392749878086300E-003  0.24885765672845503     
 chl2c           4           2           1  0.24993578616564283        1.1555863261350090E-006   1.0000000000000000     
 limit           4           2           2  0.97186316942031270        8.3847406944767944E-002   1.0000000000000000       0.74727125645385550       0.74820306828373628        2.9392749878086300E-003  0.24885765672845503     
 chl2c           4           2           2  0.24417186686365427        1.0978070098363468E-006   1.0000000000000000     
 limit           4           2           3  0.99017135584133664       0.21069471042975518        1.0000000000000000       0.97995069860228745       0.80328268641544165        2.2963197984459502E-003  0.19442099378611244     
 chl2c           4           2           3   9.1517832024005805E-002   1.5763251090187442E-006   1.0000000000000000     
 limit           4           2           4  0.99098302413396089       0.22552897839639235        1.0000000000000000       0.89818395343810742       0.89223399563980854       0.10776600436019146        0.0000000000000000     
 chl2c           4           2           4   9.1614282852615775E-002   1.6872831989052158E-006   1.0000000000000000     
 limit           4           2           5  0.97186316942031270        2.2368507766260627E-002   1.0000000000000000        1.0000000000000000        0.0000000000000000        0.0000000000000000        0.0000000000000000     
 chl2c           4           2           5  0.10358589645697847        7.3217245232554472E-008   1.0000000000000000     
 limit           4           2           6  0.97736314969185456       0.10265737010910547        1.0000000000000000       0.80272043358597145       0.76387679296678435        2.7563125243160458E-003  0.23336689450889966     
 chl2c           4           2           6  0.22396005009424499        1.1200702225393663E-006   1.0000000000000000     
 consum   6.8685041163549276E-007   9.2317848839263443E-008
 reminPOC   5.6500213760517983E-008  0.45249115795802430        3.8580246913580245E-007  0.32364953765759119     
 reminPOSi   2.9248470913735871E-009  0.45249115795802430        7.7160493827160495E-008   8.3771843134486323E-002
 reminDOC   2.1139105462629149E-006   2.1538739066243839E-010
 limit           4           3           1  0.97184219248708437        8.3126739842977554E-002  0.77453060966631171       0.74738316130628013       0.74754002136824493        2.9484267338493798E-003  0.24951155189790566     
 chl2c           4           3           1  0.25453399702431972        1.1452519216169026E-006   1.0000000000000000     
 limit           4           3           2  0.97184219248708437        8.3126739842977554E-002   1.0000000000000000       0.74738316130628013       0.74754002136824493        2.9484267338493798E-003  0.24951155189790566     
 chl2c           4           3           2  0.24879555894195665        1.0879893524394804E-006   1.0000000000000000     
 limit           4           3           3  0.99016389012015837       0.20913266729108446        1.0000000000000000       0.98020059113123414       0.80279225435693902        2.3031475821531783E-003  0.19490459806090787     
 chl2c           4           3           3   9.3444972302238555E-002   1.5631686450103332E-006   1.0000000000000000     
 limit           4           3           4  0.99097616932764276       0.22388815281097996        1.0000000000000000       0.89827734946806626       0.89184509091622943       0.10815490908377057        0.0000000000000000     
 chl2c           4           3           4   9.3546685119350756E-002   1.6728353000943443E-006   1.0000000000000000     
 limit           4           3           5  0.97184219248708437        2.2163467562296351E-002   1.0000000000000000        1.0000000000000000        0.0000000000000000        0.0000000000000000        0.0000000000000000     
 chl2c           4           3           5  0.10708510649122674        7.2520640586905327E-008   1.0000000000000000     
 limit           4           3           6  0.97734617759552811       0.10179299485346653        1.0000000000000000       0.80284974016761101       0.76326015237044631        2.7648346462729474E-003  0.23397501298328061     
 chl2c           4           3           6  0.22864862550426174        1.1102491906340409E-006   1.0000000000000000     
 consum   6.8201298846822297E-007   9.1675608859809368E-008
 reminPOC   5.7800650224586839E-008  0.45233234946450224        3.8580246913580245E-007  0.33121505804193313     
 reminPOSi   2.9941042765186692E-009  0.45233234946450224        7.7160493827160495E-008   8.5785576622189275E-002
 reminDOC   2.1148430266696745E-006   2.2174905514149259E-010
 limit           4           4           1  0.97171981377822469        8.0092327059323898E-002  0.77644035056489302       0.74815577048910431       0.74301993237565789        3.0111930676095492E-003  0.25396887455673267     
 chl2c           4           4           1  0.28271764027368129        1.1012208756759958E-006   1.0000000000000000     
 limit           4           4           2  0.97171981377822469        8.0092327059323898E-002   1.0000000000000000       0.74815577048910431       0.74301993237565789        3.0111930676095492E-003  0.25396887455673267     
 chl2c           4           4           2  0.27716913247867797        1.0461613813088471E-006   1.0000000000000000     
 limit           4           4           3  0.99012033117813092       0.20251455223233703        1.0000000000000000       0.98190802284900269       0.79944887824509092        2.3499804989252672E-003  0.19820114125598373     
 chl2c           4           4           3  0.10516004396979806        1.5057190606923530E-006   1.0000000000000000     
 limit           4           4           4  0.99093617461386385       0.21693117339479653        1.0000000000000000       0.89891509020339710       0.88919095646315593       0.11080904353684408        0.0000000000000000     
 chl2c           4           4           4  0.10527573782973362        1.6101629137650517E-006   1.0000000000000000     
 limit           4           4           5  0.97171981377822469        2.1302720082932571E-002   1.0000000000000000        1.0000000000000000        0.0000000000000000        0.0000000000000000        0.0000000000000000     
 chl2c           4           4           5  0.12906618675367204        6.9563940753967142E-008   1.0000000000000000     
 limit           4           4           6  0.97724716011276258        9.8150140534993047E-002   1.0000000000000000       0.80373920827936318       0.75905574390313191        2.8232916285936241E-003  0.23812096446827441     
 chl2c           4           4           6  0.25747131143842844        1.0683525303940122E-006   1.0000000000000000     
 consum   6.6304713672756100E-007   8.9157069616617004E-008
 reminPOC   6.4597666595470448E-008  0.45142212508030988        3.8580246913580245E-007  0.37091037969322321     
 reminPOSi   3.3588894156771629E-009  0.45142212508030988        7.7160493827160495E-008   9.6431265568633018E-002
 reminDOC   2.1218631399075574E-006   2.5429681189196761E-010
 limit           4           5           1  0.97174357144244738        7.2115429488362928E-002  0.78449742372003750       0.75320406695283437       0.71518884377873038        3.4488717076768677E-003  0.28136228451359291     
 chl2c           4           5           1  0.36245606537023400        9.8123706521877729E-007   1.0000000000000000     
 limit           4           5           2  0.97174357144244738        7.2115429488362928E-002   1.0000000000000000       0.75320406695283437       0.71518884377873038        3.4488717076768677E-003  0.28136228451359291     
 chl2c           4           5           2  0.35802127493076924        9.3217953033688429E-007   1.0000000000000000     
 limit           4           5           3  0.99012878793555525       0.18479418761178584        1.0000000000000000       0.99255739948718580       0.77882363436035762        2.6782971565507455E-003  0.21849806848309170     
 chl2c           4           5           3  0.13917546651545176        1.3573079836506460E-006   1.0000000000000000     
 limit           4           5           4  0.99094393941638492       0.19826294647402221        1.0000000000000000       0.90286303286342373       0.87270202201256319       0.12729797798743675        0.0000000000000000     
 chl2c           4           5           4  0.13932895998110217        1.4528263348349724E-006   1.0000000000000000     
 limit           4           5           5  0.97174357144244738        1.9059732995255513E-002   1.0000000000000000        1.0000000000000000        0.0000000000000000        0.0000000000000000        0.0000000000000000     
 chl2c           4           5           5  0.20672526481164055        6.1593055785749771E-008   1.0000000000000000     
 limit           4           5           6  0.97726638298897239        8.8547869942655094E-002   1.0000000000000000       0.80945663210619168       0.73312822749466489        3.2316378262098838E-003  0.26364013467912528     
 chl2c           4           5           6  0.34183210042215056        9.5381468769611126E-007   1.0000000000000000     
 consum   6.2833882788570467E-007   8.4168413670482805E-008
 reminPOC   9.5237996358719070E-008  0.44673364700027901        3.8580246913580245E-007  0.55258180846549410     
 reminPOSi   5.0196786187488896E-009  0.44673364700027901        7.7160493827160495E-008  0.14562376336731353     
 reminDOC   2.1640331910894075E-006   4.0808039634797105E-010
 limit           4           6           1  0.97203476520572452       0.30502321642572400       0.78963575636820682       0.81773911303493052       0.46773114515288483        7.2992753435811072E-003  0.52496957950353407     
 chl2c           4           6           1  0.40440153820593910        3.4569983764861843E-006   1.0000000000000000     
 limit           4           6           2  0.97203476520572452       0.30502321642572400        1.0000000000000000       0.81773911303493052       0.46773114515288483        7.2992753435811072E-003  0.52496957950353407     
 chl2c           4           6           2  0.40059279213116555        3.3314273300795282E-006   1.0000000000000000     
 limit           4           6           3  0.99023241915891591       0.56142586305326381        1.0000000000000000        1.0000000000000000       0.59122601296399202        5.6057269883399560E-003  0.40316826004766804     
 chl2c           4           6           3  0.15754674082275003        2.8607067753795547E-006   1.0000000000000000     
 limit           4           6           4  0.99103909036156435       0.58272313782410556        1.0000000000000000       0.91444043737767122       0.72545719208661918       0.27454280791338087        0.0000000000000000     
 chl2c           4           6           4  0.15766782166293136        2.9126192775642682E-006   1.0000000000000000     
 limit           4           6           5  0.97203476520572452        9.8875235985231957E-002   1.0000000000000000        1.0000000000000000        0.0000000000000000        0.0000000000000000        0.0000000000000000     
 chl2c           4           6           5  0.25552756970852419        3.1717826799798147E-007   1.0000000000000000     
 limit           4           6           6  0.97750197968045105       0.35426431065680952        1.0000000000000000       0.87456689785048169       0.49896247265033439        6.8709841582647703E-003  0.49416654319140085     
 chl2c           4           6           6  0.38747884478935146        3.2236967060753671E-006   1.0000000000000000     
 consum   3.2799034385920545E-006   5.3467559604394622E-007
 reminPOC   1.3758758350528480E-007  0.44345519699269326        3.8580246913580245E-007  0.80420078254618865     
 reminPOSi   7.4436604128777120E-009  0.44345519699269326        7.7160493827160495E-008  0.21754134263192468     
 reminDOC   2.0338048054928905E-006   6.9033781423604990E-010
 limit           4           7           1  0.97232322308565200       0.44695248883687394       0.79453285430425957       0.94582779336190514        8.2299523751569653E-002   1.3931444172772138E-002  0.90376903207565817     
 chl2c           4           7           1  0.43461989335281354        3.2140019815965835E-006   1.0000000000000000     
 limit           4           7           2  0.97232322308565200       0.44695248883687394        1.0000000000000000       0.94582779336190514        8.2299523751569653E-002   1.3931444172772138E-002  0.90376903207565817     
 chl2c           4           7           2  0.43170550059420676        3.1441796800729773E-006   1.0000000000000000     
 limit           4           7           3  0.99033503689688418       0.70212756895706030        1.0000000000000000        1.0000000000000000       0.18218762252531315        1.2415061096150480E-002  0.80539731637853640     
 chl2c           4           7           3  0.17014691379351707        2.2719508653543172E-006   1.0000000000000000     
 limit           4           7           4  0.99113330913547282       0.71999991265140861        1.0000000000000000       0.74199928268495197       0.28533598581916497       0.71466401418083503        0.0000000000000000     
 chl2c           4           7           4  0.17020569765456264        2.2875646367386080E-006   1.0000000000000000     
 limit           4           7           5  0.97232322308565200       0.16808143347260673        1.0000000000000000        1.0000000000000000        0.0000000000000000        0.0000000000000000        0.0000000000000000     
 chl2c           4           7           5  0.30391595916393677        5.3409217516411569E-007   1.0000000000000000     
 limit           4           7           6  0.97773533563880199       0.50253796274960527        1.0000000000000000       0.96907833421828338        9.8489562220306776E-002   1.3685666140701916E-002  0.88782477163899132     
 chl2c           4           7           6  0.42132874473853993        3.0245690205781602E-006   1.0000000000000000     
 consum   4.2096134721995602E-006   7.2891933612647405E-007
 reminPOC   1.8152880568664219E-007  0.44034445586261112        3.8580246913580245E-007   1.0685331859533647     
 reminPOSi   9.9690096867138130E-009  0.44034445586261112        7.7160493827160495E-008  0.29340295720703091     
 reminDOC   1.9049971098122984E-006   9.9923832947032581E-010
 limit           4           8           1  0.97237063746696406       0.76964115211385120       0.80269525140556430       0.95254046283124527        5.8697725585122096E-002   1.1219155660134126E-002  0.93008311875474370     
 chl2c           4           8           1  0.45686949637484425        2.4053803223077629E-006   1.0000000000000000     
 limit           4           8           2  0.97237063746696406       0.76964115211385120        1.0000000000000000       0.95254046283124527        5.8697725585122096E-002   1.1219155660134126E-002  0.93008311875474370     
 chl2c           4           8           2  0.45481088455084212        2.3799504158399076E-006   1.0000000000000000     
 limit           4           8           3  0.99035190058177736       0.90693119090615248        1.0000000000000000        1.0000000000000000       0.13851499223935074        1.0267832835043891E-002  0.85121717492560534     
 chl2c           4           8           3  0.17954839071250345        1.5707068453063545E-006   1.0000000000000000     
 limit           4           8           4  0.99114879242240606       0.91402008766001674        1.0000000000000000       0.65136320581872320       0.24342656029632756       0.75657343970367241        0.0000000000000000     
 chl2c           4           8           4  0.17900543951902978        1.4891999310178293E-006   1.0000000000000000     
 limit           4           8           5  0.97237063746696406       0.45511905123396862        1.0000000000000000        1.0000000000000000        0.0000000000000000        0.0000000000000000        0.0000000000000000     
 chl2c           4           8           5  0.35471363479340234        1.1113360918177889E-006   1.0000000000000000     
 limit           4           8           6  0.97777369021943139       0.80681242840748613        1.0000000000000000       0.97138504824907967        7.0956923482889206E-002   1.1073041225672643E-002  0.91797003529143817     
 chl2c           4           8           6  0.44695165449509533        2.3002282160806137E-006   1.0000000000000000     
 consum   2.0109876753610226E-006   3.6199420891180306E-007
 reminPOC   1.9199730722322441E-007  0.43723207631302707        3.8580246913580245E-007   1.1381987902605541     
 reminPOSi   1.0765591895952002E-008  0.43723207631302707        7.7160493827160495E-008  0.31910300851680901     
 reminDOC   1.4371112677231246E-006   1.0842682012056991E-009
 limit           4           9           1  0.97241630429796599       0.85449352178269811       0.81023206577992912       0.95989073228436095        3.1395428815729751E-002   8.3781554504108006E-003  0.96022641573385947     
 chl2c           4           9           1  0.47048332032509999        1.5788347976432238E-006   1.0000000000000000     
 limit           4           9           2  0.97241630429796599       0.85449352178269811        1.0000000000000000       0.95989073228436095        3.1395428815729751E-002   8.3781554504108006E-003  0.96022641573385947     
 chl2c           4           9           2  0.46914594060555126        1.5749270379829579E-006   1.0000000000000000     
 limit           4           9           3  0.99036814171055032       0.94483750745529771        1.0000000000000000        1.0000000000000000        8.0442614784441091E-002   7.9539111708812789E-003  0.91160347404467756     
 chl2c           4           9           3  0.18592336010523250        1.0365946391539197E-006   1.0000000000000000     
 limit           4           9           4  0.99116370407215615       0.94920086458999520        1.0000000000000000       0.52430891648893851       0.17160119685414141       0.82839880314585856        0.0000000000000000     
 chl2c           4           9           4  0.18521992806122686        9.6899877998558559E-007   1.0000000000000000     
 limit           4           9           5  0.97241630429796599       0.59483603296307452        1.0000000000000000        1.0000000000000000        0.0000000000000000        0.0000000000000000        0.0000000000000000     
 chl2c           4           9           5  0.39425355374540405        9.9882846418573547E-007   1.0000000000000000     
 limit           4           9           6  0.97781063047501326       0.88010573909356615        1.0000000000000000       0.97318471115936500        3.8418749356427126E-002   8.3174057151539447E-003  0.95326384492841887     
 chl2c           4           9           6  0.46350879542644019        1.5379210294298924E-006   1.0000000000000000     
 consum   6.2491338010455656E-007   1.1354870377790034E-007
 reminPOC   1.9736926379116289E-007  0.43259479676345675        3.8580246913580245E-007   1.1825873440323125     
 reminPOSi   1.1288626773649946E-008  0.43259479676345675        7.7160493827160495E-008  0.33819316385929771     
 reminDOC   9.7226658404182109E-007   1.1345356920051908E-009
 limit           4          10           1  0.97269410802424194       0.86886205589497822       0.81876139263797110       0.96227478787726517        2.3602218106387723E-002   7.3474497966298114E-003  0.96905033209698244     
 chl2c           4          10           1  0.47992668948196743        1.0510461430021165E-006   1.0000000000000000     
 limit           4          10           2  0.97269410802424194       0.86886205589497822        1.0000000000000000       0.96227478787726517        2.3602218106387723E-002   7.3474497966298114E-003  0.96905033209698244     
 chl2c           4          10           2  0.47900482952974388        1.0495602623513882E-006   1.0000000000000000     
 limit           4          10           3  0.99046691951935684       0.95079840460589515        1.0000000000000000        1.0000000000000000        6.2043027677818059E-002   7.0581804806752763E-003  0.93089879184150670     
 chl2c           4          10           3  0.19037196534796716        6.9314041857961655E-007   1.0000000000000000     
 limit           4          10           4  0.99125439517986025       0.95471285423687124        1.0000000000000000       0.47737053411862634       0.14423387710887561       0.85576612289112441        0.0000000000000000     
 chl2c           4          10           4  0.18977906903498407        6.5588614181757077E-007   1.0000000000000000     
 limit           4          10           5  0.97269410802424194       0.62354918240722579        1.0000000000000000        1.0000000000000000        0.0000000000000000        0.0000000000000000        0.0000000000000000     
 chl2c           4          10           5  0.42414934629667539        7.6722084205427146E-007   1.0000000000000000     
 limit           4          10           6  0.97803533345701221       0.89226398891605785        1.0000000000000000       0.97382312894088163        2.8988311816452370E-002   7.3069191298580239E-003  0.96370476905368962     
 chl2c           4          10           6  0.47506350174385426        1.0326254329474097E-006   1.0000000000000000     
 consum   2.5709938075942075E-007   4.6698486726887724E-008
 reminPOC   1.9924794285271099E-007  0.42798032042495743        3.8580246913580245E-007   1.2067159241374090     
 reminPOSi   1.1597122139681613E-008  0.42798032042495743        7.7160493827160495E-008  0.35118134119119443     
 reminDOC   8.2551527125723151E-007   1.1709083768778563E-009
 limit           4          11           1  0.97304187598196712       0.87152649799089754       0.82702679672880242       0.96319501686035702        2.1900261567225420E-002   6.9824103586163273E-003  0.97111732807415818     
 chl2c           4          11           1  0.48641340212497708        7.0000692759801013E-007   1.0000000000000000     
 limit           4          11           2  0.97304187598196712       0.87152649799089754        1.0000000000000000       0.96319501686035702        2.1900261567225420E-002   6.9824103586163273E-003  0.97111732807415818     
 chl2c           4          11           2  0.48577220508622521        6.9914120556163047E-007   1.0000000000000000     
 limit           4          11           3  0.99059052254280511       0.95189025563066498        1.0000000000000000        1.0000000000000000        5.7913505570372614E-002   6.7253207816598210E-003  0.93536117364796756     
 chl2c           4          11           3  0.19345435958170856        4.6306007980626767E-007   1.0000000000000000     
 limit           4          11           4  0.99136787701702000       0.95572188358963794        1.0000000000000000       0.46499837826422991       0.13798945549649405       0.86201054450350589        0.0000000000000000     
 chl2c           4          11           4  0.19302576193910118        4.4532156931299391E-007   1.0000000000000000     
 limit           4          11           5  0.97304187598196712       0.62907001462682210        1.0000000000000000        1.0000000000000000        0.0000000000000000        0.0000000000000000        0.0000000000000000     
 chl2c           4          11           5  0.44656199859238005        5.6220576092746881E-007   1.0000000000000000     
 limit           4          11           6  0.97831659198509369       0.89451068197035388        1.0000000000000000       0.97428119318216311        2.6921853976116621E-002   6.9465624614389165E-003  0.96613158356244444     
 chl2c           4          11           6  0.48305431533507220        6.9145964685136024E-007   1.0000000000000000     
 consum   1.3414915699321464E-007   2.4321945619513949E-008
 reminPOC   1.9965532958757323E-007  0.42356768334030942        3.8580246913580245E-007   1.2217802128100659     
 reminPOSi   1.1813272987510882E-008  0.42356768334030942        7.7160493827160495E-008  0.36145349123609838     
 reminDOC   7.8416332133736187E-007   1.1977255680040509E-009
 limit           4          12           1  0.97338081892550743       0.87406887121260812       0.83457202702294109       0.96402361491769950        2.0500890042822309E-002   6.6268812133699626E-003  0.97287222874380774     
 chl2c           4          12           1  0.49082456585254947        4.6542979584134375E-007   1.0000000000000000     
 limit           4          12           2  0.97338081892550743       0.87406887121260812        1.0000000000000000       0.96402361491769950        2.0500890042822309E-002   6.6268812133699626E-003  0.97287222874380774     
 chl2c           4          12           2  0.49038254625231686        4.6496778021060347E-007   1.0000000000000000     
 limit           4          12           3  0.99071093366613550       0.95292819818294572        1.0000000000000000        1.0000000000000000        5.4483952247981901E-002   6.3969660309967993E-003  0.93911908172102132     
 chl2c           4          12           3  0.19556961499693892        3.0859679123782356E-007   1.0000000000000000     
 limit           4          12           4  0.99147842607183367       0.95668092274943062        1.0000000000000000       0.45300422636706067       0.13307583930316405       0.86692416069683598        0.0000000000000000     
 chl2c           4          12           4  0.19526265721097216        3.0020823772247281E-007   1.0000000000000000     
 limit           4          12           5  0.97338081892550743       0.63439763890900580        1.0000000000000000        1.0000000000000000        0.0000000000000000        0.0000000000000000        0.0000000000000000     
 chl2c           4          12           5  0.46291901439226751        4.0034086485025454E-007   1.0000000000000000     
 limit           4          12           6  0.97859067540277866       0.89665215480957139        1.0000000000000000       0.97471435503703518        2.5220433416322116E-002   6.5949507572831785E-003  0.96818461582639470     
 chl2c           4          12           6  0.48852357860967177        4.6150545968064418E-007   1.0000000000000000     
 consum   6.4634428391075680E-008   1.1709011524176221E-008
 reminPOC   1.9994403508041959E-007  0.41935262719863514        3.8580246913580245E-007   1.2358452178790460     
 reminPOSi   1.2018706667124511E-008  0.41935262719863514        7.7160493827160495E-008  0.37143546577127684     
 reminDOC   7.4399024773849243E-007   1.2225351754221091E-009
 limit           4          13           1  0.97364832073421592       0.87635350935796996       0.84194210085636145       0.96479368555034972        1.9391135757966183E-002   6.2895396142227467E-003  0.97431932462781101     
 chl2c           4          13           1  0.49382293904890995        3.0952265226810331E-007   1.0000000000000000     
 limit           4          13           2  0.97364832073421592       0.87635350935796996        1.0000000000000000       0.96479368555034972        1.9391135757966183E-002   6.2895396142227467E-003  0.97431932462781101     
 chl2c           4          13           2  0.49352035816138384        3.0928451614010121E-007   1.0000000000000000     
 limit           4          13           3  0.99080592644075038       0.95385769821487065        1.0000000000000000        1.0000000000000000        5.1743691221496815E-002   6.0820331489752624E-003  0.94217427562952782     
 chl2c           4          13           3  0.19701090094446935        2.0556210516356207E-007   1.0000000000000000     
 limit           4          13           4  0.99156563705791168       0.95753962173129936        1.0000000000000000       0.44193795150460918       0.12941266716753139       0.87058733283246859        0.0000000000000000     
 chl2c           4          13           4  0.19679280715973282        2.0161502940404045E-007   1.0000000000000000     
 limit           4          13           5  0.97364832073421592       0.63923574111316828        1.0000000000000000        1.0000000000000000        0.0000000000000000        0.0000000000000000        0.0000000000000000     
 chl2c           4          13           5  0.47454981149221226        2.7931863937234512E-007   1.0000000000000000     
 limit           4          13           6  0.97880696216020835       0.89857462925544973        1.0000000000000000       0.97514839817089494        2.3869894106767056E-002   6.2608132493238450E-003  0.96986929264390909     
 chl2c           4          13           6  0.49225785376328934        3.0772882473684226E-007   1.0000000000000000     
 consum   3.3524966560562143E-008   6.0671061665195659E-009
 reminPOC   1.9909694817228954E-007  0.41518973885888838        3.8580246913580245E-007   1.2429480821971106     
 reminPOSi   1.2257365389336336E-008  0.41518973885888838        7.7160493827160495E-008  0.38260930022596135     
 reminDOC   7.0370736151894294E-007   1.2388499718576508E-009
 limit           4          14           1  0.97388979358779726       0.87850600157882275       0.84882278936176736       0.96551872152247431        1.8436971006279005E-002   5.9654077067003821E-003  0.97559762128702066     
 chl2c           4          14           1  0.49584726918122812        0.0000000000000000        1.0000000000000000     
 limit           4          14           2  0.97388979358779726       0.87850600157882275        1.0000000000000000       0.96551872152247431        1.8436971006279005E-002   5.9654077067003821E-003  0.97559762128702066     
 chl2c           4          14           2  0.49564110059096411        0.0000000000000000        1.0000000000000000     
 limit           4          14           3  0.99089164687164766       0.95473065991084338        1.0000000000000000        1.0000000000000000        4.9371950635002257E-002   5.7774016791373927E-003  0.94485064768586036     
 chl2c           4          14           3  0.19798756202670334        0.0000000000000000        1.0000000000000000     
 limit           4          14           4  0.99164433410270914       0.95834596737084199        1.0000000000000000       0.43115574920687377       0.12645708734330294       0.87354291265669703        0.0000000000000000     
 chl2c           4          14           4  0.19783345997955093        0.0000000000000000        1.0000000000000000     
 limit           4          14           5  0.97388979358779726       0.64383847103028347        1.0000000000000000        1.0000000000000000        0.0000000000000000        0.0000000000000000        0.0000000000000000     
 chl2c           4          14           5  0.48266551892763288        0.0000000000000000        1.0000000000000000     
 limit           4          14           6  0.97900218340513823       0.90038425831034474        1.0000000000000000       0.97557173580343914        2.2707672303965479E-002   5.9394527005706670E-003  0.97135287499546386     
 chl2c           4          14           6  0.49478716648106413        0.0000000000000000        1.0000000000000000     
 consum   0.0000000000000000        0.0000000000000000     
 reminPOC   1.9819477024519605E-007  0.41202381614384564        3.8580246913580245E-007   1.2468231795032889     
 reminPOSi   1.2536913063928780E-008  0.41202381614384564        7.7160493827160495E-008  0.39434223688611381     
 reminDOC   6.6541004411088077E-007   1.2505434945214595E-009
 limit           4          15           1  0.97418540389807440       0.88109155169328057       0.85662537988697007       0.96638162436180730        1.7333326883496911E-002   5.5739857120210776E-003  0.97709268740448196     
 chl2c           4          15           1  0.49747542580556608        0.0000000000000000        1.0000000000000000     
 limit           4          15           2  0.97418540389807440       0.88109155169328057        1.0000000000000000       0.96638162436180730        1.7333326883496911E-002   5.5739857120210776E-003  0.97709268740448196     
 chl2c           4          15           2  0.49734844209881857        0.0000000000000000        1.0000000000000000     
 limit           4          15           3  0.99099654787816527       0.95577571034675035        1.0000000000000000        1.0000000000000000        4.6608559913740438E-002   5.4079276425954151E-003  0.94798351244366419     
 chl2c           4          15           3  0.19877517782335577        0.0000000000000000        1.0000000000000000     
 limit           4          15           4  0.99174063865795159       0.95931111473053587        1.0000000000000000       0.41747577248677920       0.12316456149416927       0.87683543850583079        0.0000000000000000     
 chl2c           4          15           4  0.19867555900892908        0.0000000000000000        1.0000000000000000     
 limit           4          15           5  0.97418540389807440       0.64942514341038693        1.0000000000000000        1.0000000000000000        0.0000000000000000        0.0000000000000000        0.0000000000000000     
 chl2c           4          15           5  0.48935314541837382        0.0000000000000000        1.0000000000000000     
 limit           4          15           6  0.97924114683646835       0.90255585493743151        1.0000000000000000       0.97607990301402092        2.1361923517531269E-002   5.5511342806131240E-003  0.97308694220185565     
 chl2c           4          15           6  0.49682668039605354        0.0000000000000000        1.0000000000000000     
 consum   0.0000000000000000        0.0000000000000000     
 reminPOC   1.9738712153677275E-007  0.40887637799172982        3.8580246913580245E-007   1.2513009960034021     
 reminPOSi   1.2913703086479121E-008  0.40887637799172982        7.7160493827160495E-008  0.40932076541764556     
 reminDOC   6.1947970010065653E-007   1.2646245217101684E-009
 limit           4          16           1  0.97457450017526581       0.88357860948411615       0.86602034485820245       0.96735042967549811        1.6269710452132501E-002   5.1707556097445951E-003  0.97855953393812289     
 chl2c           4          16           1  0.49860837192285545        0.0000000000000000        1.0000000000000000     
 limit           4          16           2  0.97457450017526581       0.88357860948411615        1.0000000000000000       0.96735042967549811        1.6269710452132501E-002   5.1707556097445951E-003  0.97855953393812289     
 chl2c           4          16           2  0.49853736619172234        0.0000000000000000        1.0000000000000000     
 limit           4          16           3  0.99113456036351266       0.95677732278874450        1.0000000000000000        1.0000000000000000        4.3927697099395167E-002   5.0253776630349275E-003  0.95104692523756995     
 chl2c           4          16           3  0.19932597043010361        0.0000000000000000        1.0000000000000000     
 limit           4          16           4  0.99186733869839894       0.96023598696467838        1.0000000000000000       0.40340786546494467       0.12001400549644421       0.87998599450355575        0.0000000000000000     
 chl2c           4          16           4  0.19926751171832532        0.0000000000000000        1.0000000000000000     
 limit           4          16           5  0.97457450017526581       0.65485961023527484        1.0000000000000000        1.0000000000000000        0.0000000000000000        0.0000000000000000        0.0000000000000000     
 chl2c           4          16           5  0.49410399275175271        0.0000000000000000        1.0000000000000000     
 limit           4          16           6  0.97955563851835892       0.90464255839782037        1.0000000000000000       0.97667981171464469        2.0063930779721080E-002   5.1508121493754897E-003  0.97478525707090347     
 chl2c           4          16           6  0.49824865242753380        0.0000000000000000        1.0000000000000000     
 consum   0.0000000000000000        0.0000000000000000     
 reminPOC   1.9641892497565903E-007  0.40541799342905399        3.8580246913580245E-007   1.2557850460231268     
 reminPOSi   1.3273652155916837E-008  0.40541799342905399        7.7160493827160495E-008  0.42431893682288163     
 reminDOC   5.7363270279356679E-007   1.2791651357097489E-009
 limit           4          17           1  0.97515839745114918       0.88364102677646905       0.87860543629524857       0.96817581283341425        1.6166601630669557E-002   5.0146429779033509E-003  0.97881875539142715     
 chl2c           4          17           1  0.49923908620356344        0.0000000000000000        1.0000000000000000     
 limit           4          17           2  0.97515839745114918       0.88364102677646905        1.0000000000000000       0.96817581283341425        1.6166601630669557E-002   5.0146429779033509E-003  0.97881875539142715     
 chl2c           4          17           2  0.49919941797206402        0.0000000000000000        1.0000000000000000     
 limit           4          17           3  0.99134153415915616       0.95680241449516656        1.0000000000000000        1.0000000000000000        4.3686703580966886E-002   4.8743717833850727E-003  0.95143892463564805     
 chl2c           4          17           3  0.19962972170875651        0.0000000000000000        1.0000000000000000     
 limit           4          17           4  0.99205734204317619       0.96025915423866859        1.0000000000000000       0.40299991963048620       0.11949777035028018       0.88050222964971980        0.0000000000000000     
 chl2c           4          17           4  0.19959743589258744        0.0000000000000000        1.0000000000000000     
 limit           4          17           5  0.97515839745114918       0.65499677141628776        1.0000000000000000        1.0000000000000000        0.0000000000000000        0.0000000000000000        0.0000000000000000     
 chl2c           4          17           5  0.49674842265691815        0.0000000000000000        1.0000000000000000     
 limit           4          17           6  0.98002748812051677       0.90469490072218861        1.0000000000000000       0.97733186850004650        1.9940903324332494E-002   4.9954051928108884E-003  0.97506369148285654     
 chl2c           4          17           6  0.49904113956541396        0.0000000000000000        1.0000000000000000     
 consum   0.0000000000000000        0.0000000000000000     
 reminPOC   1.9518571119296442E-007  0.40258140080364813        3.8580246913580245E-007   1.2566933355644960     
 reminPOSi   1.3266084811015710E-008  0.40258140080364813        7.7160493827160495E-008  0.42706508250891262     
 reminDOC   5.6887845458720871E-007   1.2858572891084574E-009
 limit           4          18           1  0.97571620352044053       0.88370187506665221       0.88903148403137733       0.96895209289327799        1.6082438308677595E-002   4.8675689002219023E-003  0.97904999279110061     
 chl2c           4          18           1  0.49958228716936298        0.0000000000000000        1.0000000000000000     
 limit           4          18           2  0.97571620352044053       0.88370187506665221        1.0000000000000000       0.96895209289327799        1.6082438308677595E-002   4.8675689002219023E-003  0.97904999279110061     
 chl2c           4          18           2  0.49956032221539520        0.0000000000000000        1.0000000000000000     
 limit           4          18           3  0.99153910866547457       0.95682687331847682        1.0000000000000000        1.0000000000000000        4.3492468099071438E-002   4.7319678968893346E-003  0.95177556400403929     
 chl2c           4          18           3  0.19979661702877347        0.0000000000000000        1.0000000000000000     
 limit           4          18           4  0.99223871065787350       0.96028173707553655        1.0000000000000000       0.40264503354130626       0.11909317556209451       0.88090682443790547        0.0000000000000000     
 chl2c           4          18           4  0.19977882412464462        0.0000000000000000        1.0000000000000000     
 limit           4          18           5  0.97571620352044053       0.65513052139286254        1.0000000000000000        1.0000000000000000        0.0000000000000000        0.0000000000000000        0.0000000000000000     
 chl2c           4          18           5  0.49821019581733117        0.0000000000000000        1.0000000000000000     
 limit           4          18           6  0.98047814988935400       0.90474592601395365        1.0000000000000000       0.97794716832281048        1.9840846216386220E-002   4.8489755646029470E-003  0.97531017821901078     
 chl2c           4          18           6  0.49947332015384244        0.0000000000000000        1.0000000000000000     
 consum   0.0000000000000000        0.0000000000000000     
 reminPOC   1.9391262764541065E-007  0.39976654543712670        3.8580246913580245E-007   1.2572876259750811     
 reminPOSi   1.3225366263447572E-008  0.39976654543712670        7.7160493827160495E-008  0.42875210227224375     
 reminDOC   5.6419043146400618E-007   1.2913839324994324E-009
 limit           4          19           1  0.97624952176364521       0.88376334766349174       0.89780819184670801       0.96968465588796060        1.6009756483023760E-002   4.7286235607163288E-003  0.97926161995625993     
 chl2c           4          19           1  0.49977066705914247        0.0000000000000000        1.0000000000000000     
 limit           4          19           2  0.97624952176364521       0.88376334766349174        1.0000000000000000       0.96968465588796060        1.6009756483023760E-002   4.7286235607163288E-003  0.97926161995625993     
 chl2c           4          19           2  0.49975860273999323        0.0000000000000000        1.0000000000000000     
 limit           4          19           3  0.99172787200740120       0.95685158094010869        1.0000000000000000        1.0000000000000000        4.3326166334521278E-002   4.5973529306780683E-003  0.95207648073480067     
 chl2c           4          19           3  0.19988832910701848        0.0000000000000000        1.0000000000000000     
 limit           4          19           4  0.99241198525435237       0.96030454953414368        1.0000000000000000       0.40231560491658797       0.11875644472227581       0.88124355527772424        0.0000000000000000     
 chl2c           4          19           4  0.19987853836681002        0.0000000000000000        1.0000000000000000     
 limit           4          19           5  0.97624952176364521       0.65526568041585997        1.0000000000000000        1.0000000000000000        0.0000000000000000        0.0000000000000000        0.0000000000000000     
 chl2c           4          19           5  0.49901613723152671        0.0000000000000000        1.0000000000000000     
 limit           4          19           6  0.98090893301673721       0.90479747353678086        1.0000000000000000       0.97852880863840608        1.9754651245811151E-002   4.7106272465004201E-003  0.97553472150768850     
 chl2c           4          19           6  0.49971081268535417        0.0000000000000000        1.0000000000000000     
 consum   0.0000000000000000        0.0000000000000000     
 reminPOC   1.9271016189008531E-007  0.39710294838277010        3.8580246913580245E-007   1.2578721504168369     
 reminPOSi   1.3188012269840415E-008  0.39710294838277010        7.7160493827160495E-008  0.43040888946607397     
 reminDOC   5.5972041180904865E-007   1.2968590619676546E-009
 limit           4          20           1  0.97686380756355418       0.88507858048900767       0.90630685576565062       0.97054166138820874        1.5747511044856995E-002   4.5200366887233187E-003  0.97973245226641970     
 chl2c           4          20           1  0.49988613471450638        0.0000000000000000        1.0000000000000000     
 limit           4          20           2  0.97686380756355418       0.88507858048900767        1.0000000000000000       0.97054166138820874        1.5747511044856995E-002   4.5200366887233187E-003  0.97973245226641970     
 chl2c           4          20           2  0.49988014324010244        0.0000000000000000        1.0000000000000000     
 limit           4          20           3  0.99194512661273293       0.95737969388754429        1.0000000000000000        1.0000000000000000        4.2676234593471161E-002   4.3963704346004183E-003  0.95292739497192847     
 chl2c           4          20           3  0.19994453796484185        0.0000000000000000        1.0000000000000000     
 limit           4          20           4  0.99261140654627356       0.96079213178480327        1.0000000000000000       0.39871150852767601       0.11803122098908229       0.88196877901091775        0.0000000000000000     
 chl2c           4          20           4  0.19993960263172053        0.0000000000000000        1.0000000000000000     
 limit           4          20           5  0.97686380756355418       0.65816634765007265        1.0000000000000000        1.0000000000000000        0.0000000000000000        0.0000000000000000        0.0000000000000000     
 chl2c           4          20           5  0.49951120332027971        0.0000000000000000        1.0000000000000000     
 limit           4          20           6  0.98140500256303187       0.90590004429407689        1.0000000000000000       0.97917764166652521        1.9436514810059057E-002   4.5030954744000994E-003  0.97606038971554088     
 chl2c           4          20           6  0.49985640471858511        0.0000000000000000        1.0000000000000000     
 consum   0.0000000000000000        0.0000000000000000     
 reminPOC   1.9163991109244018E-007  0.39470913705658583        3.8580246913580245E-007   1.2584726395132657     
 reminPOSi   1.3199335867885706E-008  0.39470913705658583        7.7160493827160495E-008  0.43339101324952339     
 reminDOC   5.4668265901038460E-007   1.3046533822270078E-009
 limit           4          21           1  0.97766236648351235       0.89419801951374245       0.91366399461045167       0.97182605864474325        1.4144201193696408E-002   3.9277109197317197E-003  0.98192808788657182     
 chl2c           4          21           1  0.49994878772506191        0.0000000000000000        1.0000000000000000     
 limit           4          21           2  0.97766236648351235       0.89419801951374245        1.0000000000000000       0.97182605864474325        1.4144201193696408E-002   3.9277109197317197E-003  0.98192808788657182     
 chl2c           4          21           2  0.49994609263170148        0.0000000000000000        1.0000000000000000     
 limit           4          21           3  0.99222728701364082       0.96101448902644815        1.0000000000000000        1.0000000000000000        3.8566415237547814E-002   3.8304112975149542E-003  0.95760317346493717     
 chl2c           4          21           3  0.19997507819898708        0.0000000000000000        1.0000000000000000     
 limit           4          21           4  0.99287039506476527       0.96414680200391811        1.0000000000000000       0.37132566906555536       0.11435471620522310       0.88564528379477692        0.0000000000000000     
 chl2c           4          21           4  0.19997257263875634        0.0000000000000000        1.0000000000000000     
 limit           4          21           5  0.97766236648351235       0.67875663178168966        1.0000000000000000        1.0000000000000000        0.0000000000000000        0.0000000000000000        0.0000000000000000     
 chl2c           4          21           5  0.49978081917328648        0.0000000000000000        1.0000000000000000     
 limit           4          21           6  0.98204969974107093       0.91352864754191576        1.0000000000000000       0.97993405384072829        1.7473916896092387E-002   3.9144451249372497E-003  0.97861163797897033     
 chl2c           4          21           6  0.49993540516552060        0.0000000000000000        1.0000000000000000     
 consum   0.0000000000000000        0.0000000000000000     
 reminPOC   1.9011855599520750E-007  0.39154501343740455        3.8580246913580245E-007   1.2585712503738953     
 reminPOSi   1.3410962628654066E-008  0.39154501343740455        7.7160493827160495E-008  0.44389806970467949     
 reminDOC   4.7134666456161531E-007   1.3225628967789557E-009
 limit           4          22           1  0.97840768522392330       0.90197876856032611       0.91994959913581786       0.97305262498236245        1.2547330188233820E-002   3.3747658484135417E-003  0.98407790396335260     
 chl2c           4          22           1  0.49997698957265424        0.0000000000000000        1.0000000000000000     
 limit           4          22           2  0.97840768522392330       0.90197876856032611        1.0000000000000000       0.97305262498236245        1.2547330188233820E-002   3.3747658484135417E-003  0.98407790396335260     
 chl2c           4          22           2  0.49997577855545289        0.0000000000000000        1.0000000000000000     
 limit           4          22           3  0.99249036466447604       0.96407890067858326        1.0000000000000000        1.0000000000000000        3.4421945025943458E-002   3.3000061101917852E-003  0.96227804886386481     
 chl2c           4          22           3  0.19998880123482557        0.0000000000000000        1.0000000000000000     
 limit           4          22           4  0.99311185698892368       0.96697346316287058        1.0000000000000000       0.34198339985082649       0.11064722705610236       0.88935277294389758        0.0000000000000000     
 chl2c           4          22           4  0.19998751252613281        0.0000000000000000        1.0000000000000000     
 limit           4          22           5  0.97840768522392330       0.69701265287021019        1.0000000000000000        1.0000000000000000        0.0000000000000000        0.0000000000000000        0.0000000000000000     
 chl2c           4          22           5  0.49990169349272806        0.0000000000000000        1.0000000000000000     
 limit           4          22           6  0.98265122815058836       0.92001496859321408        1.0000000000000000       0.98064189189722839        1.5515423954046115E-002   3.3646219480707924E-003  0.98111995409788311     
 chl2c           4          22           6  0.49997097285934916        0.0000000000000000        1.0000000000000000     
 consum   0.0000000000000000        0.0000000000000000     
 reminPOC   1.8853375838402574E-007  0.38825979971698632        3.8580246913580245E-007   1.2586404827067010     
 reminPOSi   1.3627621342116839E-008  0.38825979971698632        7.7160493827160495E-008  0.45488606526499320     
 reminDOC   3.9701085326243035E-007   1.3414700431838805E-009
 limit           4          23           1  0.97910485626750599       0.90869332294469762       0.92538221622656069       0.97422685499678441        1.0956108812231517E-002   2.8574150217796530E-003  0.98618647616598876     
 chl2c           4          23           1  0.49998965542636087        0.0000000000000000        1.0000000000000000     
 limit           4          23           2  0.97910485626750599       0.90869332294469762        1.0000000000000000       0.97422685499678441        1.0956108812231517E-002   2.8574150217796530E-003  0.98618647616598876     
 chl2c           4          23           2  0.49998911098661764        0.0000000000000000        1.0000000000000000     
 limit           4          23           3  0.99273621094671194       0.96669659851664103        1.0000000000000000        1.0000000000000000        3.0240759574953514E-002   2.8017003550493422E-003  0.96695754006999723     
 chl2c           4          23           3  0.19999496670061265        0.0000000000000000        1.0000000000000000     
 limit           4          23           4  0.99333749378117442       0.96938692200466092        1.0000000000000000       0.31045928249158572       0.10690282910131470       0.89309717089868534        0.0000000000000000     
 chl2c           4          23           4  0.19999429264055660        0.0000000000000000        1.0000000000000000     
 limit           4          23           5  0.97910485626750599       0.71330483916879017        1.0000000000000000        1.0000000000000000        0.0000000000000000        0.0000000000000000        0.0000000000000000     
 chl2c           4          23           5  0.49995588749331482        0.0000000000000000        1.0000000000000000     
 limit           4          23           6  0.98321373472889040       0.92559594087615304        1.0000000000000000       0.98130556583084805        1.3560160878125348E-002   2.8498917383774926E-003  0.98358994738349714     
 chl2c           4          23           6  0.49998694922845521        0.0000000000000000        1.0000000000000000     
 consum   0.0000000000000000        0.0000000000000000     
 reminPOC   1.8689484910113297E-007  0.38486319955520870        3.8580246913580245E-007   1.2587107560036925     
 reminPOSi   1.3835020026895919E-008  0.38486319955520870        7.7160493827160495E-008  0.46588465656314387     
 reminDOC   3.2377449183702566E-007   1.3604183647595125E-009
 limit           4          24           1  0.98014967105935935       0.91771605257067490       0.93382923950462349       0.97597541477668059        8.6019103847330292E-003   2.1340779847564204E-003  0.98926401163051048     
 chl2c           4          24           1  0.49999743902652183        0.0000000000000000        1.0000000000000000     
 limit           4          24           2  0.98014967105935935       0.91771605257067490        1.0000000000000000       0.97597541477668059        8.6019103847330292E-003   2.1340779847564204E-003  0.98926401163051048     
 chl2c           4          24           2  0.49999730423910627        0.0000000000000000        1.0000000000000000     
 limit           4          24           3  0.99310422093164885       0.97017569168712714        1.0000000000000000        1.0000000000000000        2.3960652532054649E-002   2.1010168422814848E-003  0.97393833062566382     
 chl2c           4          24           3  0.19999875860522850        0.0000000000000000        1.0000000000000000     
 limit           4          24           4  0.99367523467198138       0.97259293431512195        1.0000000000000000       0.25867419808446523       0.10140820166353939       0.89859179833646063        0.0000000000000000     
 chl2c           4          24           4  0.19999854189601399        0.0000000000000000        1.0000000000000000     
 limit           4          24           5  0.98014967105935935       0.73602654416956570        1.0000000000000000        1.0000000000000000        0.0000000000000000        0.0000000000000000        0.0000000000000000     
 chl2c           4          24           5  0.49998914446112924        0.0000000000000000        1.0000000000000000     
 limit           4          24           6  0.98405643986485392       0.93307141237948277        1.0000000000000000       0.98229151863746444        1.0660875274766500E-002   2.1296458684458958E-003  0.98720947885678756     
 chl2c           4          24           6  0.49999676863239878        0.0000000000000000        1.0000000000000000     
 consum   0.0000000000000000        0.0000000000000000     
 reminPOC   1.8519578384006572E-007  0.38147981433871014        3.8580246913580245E-007   1.2583299395423353     
 reminPOSi   1.4297988036351136E-008  0.38147981433871014        7.7160493827160495E-008  0.48574503285928505     
 reminDOC   2.1742811904060164E-007   1.4049802977746889E-009
 limit           4          25           1  0.98124317507543701       0.92575328094591491       0.94438906182414950       0.97764627815459604        6.6852912571876309E-003   1.5662935932366400E-003  0.99174841514957568     
 chl2c           4          25           1  0.49999965237640198        0.0000000000000000        1.0000000000000000     
 limit           4          25           2  0.98124317507543701       0.92575328094591491        1.0000000000000000       0.97764627815459604        6.6852912571876309E-003   1.5662935932366400E-003  0.99174841514957568     
 chl2c           4          25           2  0.49999963408043141        0.0000000000000000        1.0000000000000000     
 limit           4          25           3  0.99348883250988318       0.97323825787800566        1.0000000000000000        1.0000000000000000        1.8765481335301645E-002   1.5472451243496966E-003  0.97968727354034868     
 chl2c           4          25           3  0.19999983185556039        0.0000000000000000        1.0000000000000000     
 limit           4          25           4  0.99402818951253435       0.97541357175046228        1.0000000000000000       0.21127642010497222        9.7045879404356092E-002  0.90295412059564395        0.0000000000000000     
 chl2c           4          25           4  0.19999979287175490        0.0000000000000000        1.0000000000000000     
 limit           4          25           5  0.98124317507543701       0.75711366435728289        1.0000000000000000        1.0000000000000000        0.0000000000000000        0.0000000000000000        0.0000000000000000     
 chl2c           4          25           5  0.49999853227367991        0.0000000000000000        1.0000000000000000     
 limit           4          25           6  0.98493803714027350       0.93970731799232377        1.0000000000000000       0.98328950284696215        8.2951005070963785E-003   1.5637551893528836E-003  0.99014114430355071     
 chl2c           4          25           6  0.49999956133316348        0.0000000000000000        1.0000000000000000     
 consum   0.0000000000000000        0.0000000000000000     
 reminPOC   1.8123500883843985E-007  0.37400845574940400        3.8580246913580245E-007   1.2560174394131589     
 reminPOSi   1.4864965437144880E-008  0.37400845574940400        7.7160493827160495E-008  0.51509517794025073     
 reminDOC   1.2956622665896827E-007   1.5065509313776287E-009
 limit           4          26           1  0.98254415109154103       0.93418515124946777       0.95495867424664926       0.97973359685994954        4.1814897454230020E-003   8.9791229398326075E-004  0.99492059796059373     
 chl2c           4          26           1  0.49999998209628921        0.0000000000000000        1.0000000000000000     
 limit           4          26           2  0.98254415109154103       0.93418515124946777        1.0000000000000000       0.97973359685994954        4.1814897454230020E-003   8.9791229398326075E-004  0.99492059796059373     
 chl2c           4          26           2  0.49999998115398975        0.0000000000000000        1.0000000000000000     
 limit           4          26           3  0.99394568859313559       0.97641485729115252        1.0000000000000000       0.99994662797463196        1.1856382773054014E-002   8.9099197593981079E-004  0.98725262525100621     
 chl2c           4          26           3  0.19999999161348880        0.0000000000000000        1.0000000000000000     
 limit           4          26           4  0.99444741311953366       0.97833771016713056        1.0000000000000000       0.14018487610707617        9.2161302106101392E-002  0.90783869789389871        0.0000000000000000     
 chl2c           4          26           4  0.19999998835345523        0.0000000000000000        1.0000000000000000     
 limit           4          26           5  0.98254415109154103       0.78014898825484702        1.0000000000000000        1.0000000000000000        0.0000000000000000        0.0000000000000000        0.0000000000000000     
 chl2c           4          26           5  0.49999992693531403        0.0000000000000000        1.0000000000000000     
 limit           4          26           6  0.98598639700592738       0.94664582156276300        1.0000000000000000       0.98450953784929562        5.1961843590295287E-003   8.9699736143399229E-004  0.99390681827953642     
 chl2c           4          26           6  0.49999997740447855        0.0000000000000000        1.0000000000000000     
 consum   0.0000000000000000        0.0000000000000000     
 reminPOC   1.7664508875343084E-007  0.36665941055494305        3.8580246913580245E-007   1.2487449029493349     
 reminPOSi   1.5749743227653630E-008  0.36665941055494305        7.7160493827160495E-008  0.55669284997065316     
 reminDOC   1.9424102104509044E-008   1.6717077285901137E-009
 limit           4          27           1  0.98311702426415259       0.93500451003645513       0.96468494082447442       0.98087264686778552        3.6300937670520257E-003   7.1282492960090898E-004  0.99565708130334707     
 chl2c           4          27           1  0.49999999986277777        0.0000000000000000        1.0000000000000000     
 limit           4          27           2  0.98311702426415259       0.93500451003645513        1.0000000000000000       0.98087264686778552        3.6300937670520257E-003   7.1282492960090898E-004  0.99565708130334707     
 chl2c           4          27           2  0.49999999985555560        0.0000000000000000        1.0000000000000000     
 limit           4          27           3  0.99414661058994380       0.97672157991725106        1.0000000000000000       0.99944353622620397        1.0320605660103753E-002   7.0803839034543341E-004  0.98897135594955088     
 chl2c           4          27           3  0.19999999994328582        0.0000000000000000        1.0000000000000000     
 limit           4          27           4  0.99463177451459794       0.97861997382158317        1.0000000000000000       0.12021829796071820        9.3513514731385181E-002  0.90648648526861475        0.0000000000000000     
 chl2c           4          27           4  0.19999999991633577        0.0000000000000000        1.0000000000000000     
 limit           4          27           5  0.98311702426415259       0.78243941131988448        1.0000000000000000        1.0000000000000000        0.0000000000000000        0.0000000000000000        0.0000000000000000     
 chl2c           4          27           5  0.49999999950581897        0.0000000000000000        1.0000000000000000     
 limit           4          27           6  0.98644785931886436       0.94731879994730550        1.0000000000000000       0.98532523881674616        4.5130947454100215E-003   7.1219321129398498E-004  0.99477471204329593     
 chl2c           4          27           6  0.49999999982680721        0.0000000000000000        1.0000000000000000     
 consum   0.0000000000000000        0.0000000000000000     
 reminPOC   1.6475347011880148E-007  0.35696202121518000        3.8580246913580245E-007   1.1963205303863662     
 reminPOSi   1.6339600208066117E-008  0.35696202121518000        7.7160493827160495E-008  0.59323178968914803     
 reminDOC   6.1877099262851470E-009   2.0387225451807566E-009
 limit           4          28           1  0.98384276867235865       0.93667763645280910       0.97225692061276492       0.98191359438554937        3.0882620399963639E-003   5.5393351158896699E-004  0.99635780444841471     
 chl2c           4          28           1  0.49999999999945488        0.0000000000000000        1.0000000000000000     
 limit           4          28           2  0.98384276867235865       0.93667763645280910        1.0000000000000000       0.98191359438554937        3.0882620399963639E-003   5.5393351158896699E-004  0.99635780444841471     
 chl2c           4          28           2  0.49999999999942624        0.0000000000000000        1.0000000000000000     
 limit           4          28           3  0.99440092908388689       0.97734683552446233        1.0000000000000000       0.99891552135174289        8.8029572284215613E-003   5.5075814404854386E-004  0.99064628462752991     
 chl2c           4          28           3  0.19999999999985790        0.0000000000000000        1.0000000000000000     
 limit           4          28           4  0.99486512244826641       0.97919532492022010        1.0000000000000000       0.10060507608632854        9.5275005686665720E-002  0.90472499431333420        0.0000000000000000     
 chl2c           4          28           4  0.19999999999977411        0.0000000000000000        1.0000000000000000     
 limit           4          28           5  0.98384276867235865       0.78714583270348892        1.0000000000000000        1.0000000000000000        0.0000000000000000        0.0000000000000000        0.0000000000000000     
 chl2c           4          28           5  0.49999999999876216        0.0000000000000000        1.0000000000000000     
 limit           4          28           6  0.98703231054622909       0.94869232450617080        1.0000000000000000       0.98606286182351277        3.8411716263291656E-003   5.5351515775162532E-004  0.99560531321591927     
 chl2c           4          28           6  0.49999999999931161        0.0000000000000000        1.0000000000000000     
 consum   0.0000000000000000        0.0000000000000000     
 reminPOC   1.4480164579855745E-007  0.34932899888011382        3.8580246913580245E-007   1.0744194358701635     
 reminPOSi   1.5792663155207236E-008  0.34932899888011382        7.7160493827160495E-008  0.58590301734934824     
 reminDOC   1.3342210312276773E-009   2.4684023872442291E-009
 limit           4          29           1  0.98456936273931694       0.93883903639627109       0.97794777661124788       0.98279950342642297        2.5217739604020484E-003   4.1378997091725579E-004  0.99706443606868067     
 chl2c           4          29           1  0.49999999999999856        0.0000000000000000        1.0000000000000000     
 limit           4          29           2  0.98456936273931694       0.93883903639627109        1.0000000000000000       0.98279950342642297        2.5217739604020484E-003   4.1378997091725579E-004  0.99706443606868067     
 chl2c           4          29           2  0.49999999999999850        0.0000000000000000        1.0000000000000000     
 limit           4          29           3  0.99465529982541712       0.97815244079925101        1.0000000000000000       0.99828577823136644        7.2068398260706941E-003   4.1184643649445668E-004  0.99238131373743488     
 chl2c           4          29           3  0.19999999999999987        0.0000000000000000        1.0000000000000000     
 limit           4          29           4  0.99509850842305836       0.97993654260153962        1.0000000000000000        8.0395665862593349E-002   9.7559984674125216E-002  0.90244001532587481        0.0000000000000000     
 chl2c           4          29           4  0.19999999999999979        0.0000000000000000        1.0000000000000000     
 limit           4          29           5  0.98456936273931694       0.79328484060531601        1.0000000000000000        1.0000000000000000        0.0000000000000000        0.0000000000000000        0.0000000000000000     
 chl2c           4          29           5  0.49999999999999878        0.0000000000000000        1.0000000000000000     
 limit           4          29           6  0.98761727552552059       0.95046531125796208        1.0000000000000000       0.98667020585749610        3.1379070709302037E-003   4.1353437666443799E-004  0.99644855855240544     
 chl2c           4          29           6  0.49999999999999811        0.0000000000000000        1.0000000000000000     
 consum   0.0000000000000000        0.0000000000000000     
 reminPOC   1.1971628820179956E-007  0.34353934974464473        3.8580246913580245E-007  0.90325786332691183     
 reminPOSi   1.4405535608165288E-008  0.34353934974464473        7.7160493827160495E-008  0.54344790959345535     
 reminDOC   4.0980423533057003E-010   2.8884431268578482E-009
 limit           4          30           1  0.98523089184083346       0.94179769714297834       0.98307763557776795       0.98344711214436276        1.7631309555491542E-003   2.6889279574444669E-004  0.99796797624870637     
 chl2c           4          30           1  0.50000000000000000        0.0000000000000000        1.0000000000000000     
 limit           4          30           2  0.98523089184083346       0.94179769714297834        1.0000000000000000       0.98344711214436276        1.7631309555491542E-003   2.6889279574444669E-004  0.99796797624870637     
 chl2c           4          30           2  0.50000000000000000        0.0000000000000000        1.0000000000000000     
 limit           4          30           3  0.99488667887591764       0.97925134625263754        1.0000000000000000       0.99724349472787222        5.0545235745836012E-003   2.6800620079822716E-004  0.99467747022461817     
 chl2c           4          30           3  0.20000000000000001        0.0000000000000000        1.0000000000000000     
 limit           4          30           4  0.99531079085024110       0.98094745784824144        1.0000000000000000        5.5191376760791062E-002   9.9586348374064507E-002  0.90041365162593545        0.0000000000000000     
 chl2c           4          30           4  0.20000000000000001        0.0000000000000000        1.0000000000000000     
 limit           4          30           5  0.98523089184083346       0.80179819331106772        1.0000000000000000        1.0000000000000000        0.0000000000000000        0.0000000000000000        0.0000000000000000     
 chl2c           4          30           5  0.50000000000000000        0.0000000000000000        1.0000000000000000     
 limit           4          30           6  0.98814970982921690       0.95288977297417865        1.0000000000000000       0.98704863301342005        2.1949206351897983E-003   2.6877648554019299E-004  0.99753630287927009     
 chl2c           4          30           6  0.50000000000000000        0.0000000000000000        1.0000000000000000     
 consum   0.0000000000000000        0.0000000000000000     
 reminPOC   8.4578893366180722E-008  0.33918490006846636        3.8580246913580245E-007  0.64633918420568826     
 reminPOSi   1.1436133742369463E-008  0.33918490006846636        7.7160493827160495E-008  0.43696607151789713     
 reminDOC   8.3387613192800298E-011   3.1870604947901924E-009
 limit           4          31           1  0.98456012723096831       0.94353376273617018       0.98577933148954511       0.98278011142314259        1.0496505580593440E-003   1.6367632697069986E-004  0.99878667311496994     
 chl2c           4          31           1  0.50000000000000000        0.0000000000000000        1.0000000000000000     
 limit           4          31           2  0.98456012723096831       0.94353376273617018        1.0000000000000000       0.98278011142314259        1.0496505580593440E-003   1.6367632697069986E-004  0.99878667311496994     
 chl2c           4          31           2  0.50000000000000000        0.0000000000000000        1.0000000000000000     
 limit           4          31           3  0.99465206813882279       0.97989408958136137        1.0000000000000000       0.99580640106107743        3.0154709656660876E-003   1.6335423061828271E-004  0.99682117480371568     
 chl2c           4          31           3  0.19999999999999990        0.0000000000000000        1.0000000000000000     
 limit           4          31           4  0.99509554340227913       0.98153865026257880        1.0000000000000000        3.2593280427863670E-002  0.10047823858778088       0.89952176141221918        0.0000000000000000     
 chl2c           4          31           4  0.19999999999999990        0.0000000000000000        1.0000000000000000     
 limit           4          31           5  0.98456012723096831       0.80685377298791450        1.0000000000000000        1.0000000000000000        0.0000000000000000        0.0000000000000000        0.0000000000000000     
 chl2c           4          31           5  0.50000000000000000        0.0000000000000000        1.0000000000000000     
 limit           4          31           6  0.98760984128996054       0.95431103338306988        1.0000000000000000       0.98637609894807243        1.3069428144525017E-003   1.6363417006920024E-004  0.99852942301547831     
 chl2c           4          31           6  0.50000000000000000        0.0000000000000000        1.0000000000000000     
 consum   0.0000000000000000        0.0000000000000000     
 reminPOC   5.0873386262802016E-008  0.33808767521518818        3.8580246913580245E-007  0.39002846557258652     
 reminPOSi   7.9479496224718419E-009  0.33808767521518818        7.7160493827160495E-008  0.30467075453630044     
 reminDOC   1.1539065445002871E-011   3.0156865100878618E-009
 limit           4          32           1  0.98367397977372228       0.94681451548159545       0.98609106054932594       0.98205040103117758        5.8202594826357618E-004   9.4473733356659635E-005  0.99932350031837980     
 chl2c           4          32           1  0.50000000000000000        0.0000000000000000        1.0000000000000000     
 limit           4          32           2  0.98367397977372228       0.94681451548159545        1.0000000000000000       0.98205040103117758        5.8202594826357618E-004   9.4473733356659635E-005  0.99932350031837980     
 chl2c           4          32           2  0.50000000000000000        0.0000000000000000        1.0000000000000000     
 limit           4          32           3  0.99434180323091581       0.98110457284175712        1.0000000000000000       0.99475911877968159        1.6740540398810339E-003   9.4370505304509247E-005  0.99823157545481445     
 chl2c           4          32           3  0.19999999999999990        0.0000000000000000        1.0000000000000000     
 limit           4          32           4  0.99481087286980918       0.98265187508572305        1.0000000000000000        1.8131917293026458E-002  0.10017664696129415       0.89982335303870586        0.0000000000000000     
 chl2c           4          32           4  0.19999999999999990        0.0000000000000000        1.0000000000000000     
 limit           4          32           5  0.98367397977372228       0.81653162515602506        1.0000000000000000        1.0000000000000000        0.0000000000000000        0.0000000000000000        0.0000000000000000     
 chl2c           4          32           5  0.50000000000000000        0.0000000000000000        1.0000000000000000     
 limit           4          32           6  0.98689639788434236       0.95699415504506602        1.0000000000000000       0.98569933428247769        7.2473564213479402E-004   9.4460243187464917E-005  0.99918080411467769     
 chl2c           4          32           6  0.50000000000000000        0.0000000000000000        1.0000000000000000     
 consum   0.0000000000000000        0.0000000000000000     
 reminPOC   2.8305386419897014E-008  0.33593686835801395        3.8580246913580245E-007  0.21839687307611599     
 reminPOSi   5.3797213554313015E-009  0.33593686835801395        7.7160493827160495E-008  0.20754253353367141     
 reminDOC   8.2410614579738713E-013   2.5083812369804757E-009
 limit           4          33           1  0.98262720003427328       0.95286825937049136       0.98659010128873770       0.98137058712192748        3.3446582095020516E-004   5.7209973595158548E-005  0.99960832420545465     
 chl2c           4          33           1  0.50000000000000000        0.0000000000000000        1.0000000000000000     
 limit           4          33           2  0.98262720003427328       0.95286825937049136        1.0000000000000000       0.98137058712192748        3.3446582095020516E-004   5.7209973595158548E-005  0.99960832420545465     
 chl2c           4          33           2  0.50000000000000000        0.0000000000000000        1.0000000000000000     
 limit           4          33           3  0.99397482557023886       0.98332405388585176        1.0000000000000000       0.99410074488667788        9.6242754534610038E-004   5.7174035901556899E-005  0.99898039841875230     
 chl2c           4          33           3  0.20000000000000004        0.0000000000000000        1.0000000000000000     
 limit           4          33           4  0.99447414892133390       0.98469244373007270        1.0000000000000000        1.0585695428979120E-002   9.8589312467268486E-002  0.90141068753273146        0.0000000000000000     
 chl2c           4          33           4  0.20000000000000004        0.0000000000000000        1.0000000000000000     
 limit           4          33           5  0.98262720003427328       0.83482762245482134        1.0000000000000000        1.0000000000000000        0.0000000000000000        0.0000000000000000        0.0000000000000000     
 chl2c           4          33           5  0.50000000000000000        0.0000000000000000        1.0000000000000000     
 limit           4          33           6  0.98605330138637937       0.96193580110648924        1.0000000000000000       0.98510438421136426        4.1646346317194844E-004   5.7205280942680319E-005  0.99952633125588541     
 chl2c           4          33           6  0.50000000000000000        0.0000000000000000        1.0000000000000000     
 consum   0.0000000000000000        0.0000000000000000     
 reminPOC   1.6201624597674052E-008  0.33202349164073613        3.8580246913580245E-007  0.12648084251403252     
 reminPOSi   4.0675782240200577E-009  0.33202349164073613        7.7160493827160495E-008  0.15877133730146042     
 reminDOC   2.6911968234771346E-014   1.9802290310724921E-009
 limit           4          34           1  0.98238262305032631       0.95643524805578872       0.98775941772546205       0.98134797699282195        1.9032519991703573E-004   3.3651416881470317E-005  0.99977602338320160     
 chl2c           4          34           1  0.50000000000000000        0.0000000000000000        1.0000000000000000     
 limit           4          34           2  0.98238262305032631       0.95643524805578872        1.0000000000000000       0.98134797699282195        1.9032519991703573E-004   3.3651416881470317E-005  0.99977602338320160     
 chl2c           4          34           2  0.50000000000000000        0.0000000000000000        1.0000000000000000     
 limit           4          34           3  0.99388900871291364       0.98462330552624666        1.0000000000000000       0.99384853715304022        5.4793681148892256E-004   3.3639380453212033E-005  0.99941842380805779     
 chl2c           4          34           3  0.19999999999999996        0.0000000000000000        1.0000000000000000     
 limit           4          34           4  0.99439540385031766       0.98588661196107064        1.0000000000000000        6.2107167252245599E-003   9.5648028108248476E-002  0.90435197189175154        0.0000000000000000     
 chl2c           4          34           4  0.19999999999999996        0.0000000000000000        1.0000000000000000     
 limit           4          34           5  0.98238262305032631       0.84588317586479422        1.0000000000000000        1.0000000000000000        0.0000000000000000        0.0000000000000000        0.0000000000000000     
 chl2c           4          34           5  0.50000000000000000        0.0000000000000000        1.0000000000000000     
 limit           4          34           6  0.98585626333219023       0.96484186737934274        1.0000000000000000       0.98505874002945881        2.3699922841970155E-004   3.3649845935288983E-005  0.99972935092564497     
 chl2c           4          34           6  0.50000000000000000        0.0000000000000000        1.0000000000000000     
 consum   0.0000000000000000        0.0000000000000000     
 reminPOC   9.1595298379833178E-009  0.32656291317143155        3.8580246913580245E-007   7.2701156140132450E-002
 reminPOSi   3.5230850139267467E-009  0.32656291317143155        7.7160493827160495E-008  0.13981741324227323     
 reminDOC   8.5715793269205932E-016   1.5455958091890115E-009
 limit           4          35           1  0.98297774253244974       0.95850727800446300       0.98939038524058354       0.98196785385386098        1.1960838004771712E-004   2.1676400571723795E-005  0.99985871521938052     
 chl2c           4          35           1  0.50000000000000000        0.0000000000000000        1.0000000000000000     
 limit           4          35           2  0.98297774253244974       0.95850727800446300        1.0000000000000000       0.98196785385386098        1.1960838004771712E-004   2.1676400571723795E-005  0.99985871521938052     
 chl2c           4          35           2  0.50000000000000000        0.0000000000000000        1.0000000000000000     
 limit           4          35           3  0.99409777482481243       0.98537515337318105        1.0000000000000000       0.99394648523966711        3.4457591632436758E-004   2.1671523501953412E-005  0.99963375256017362     
 chl2c           4          35           3  0.19999999999999990        0.0000000000000000        1.0000000000000000     
 limit           4          35           4  0.99458696450988271       0.98657753213092092        1.0000000000000000        4.1218859681241221E-003   9.0641480047872480E-002  0.90935851995212758        0.0000000000000000     
 chl2c           4          35           4  0.19999999999999990        0.0000000000000000        1.0000000000000000     
 limit           4          35           5  0.98297774253244974       0.85240185803294266        1.0000000000000000        1.0000000000000000        0.0000000000000000        0.0000000000000000        0.0000000000000000     
 chl2c           4          35           5  0.50000000000000000        0.0000000000000000        1.0000000000000000     
 limit           4          35           6  0.98633567449257831       0.96652805397334363        1.0000000000000000       0.98554484975970236        1.4896345872746227E-004   2.1675764183162111E-005  0.99982936077708928     
 chl2c           4          35           6  0.50000000000000000        0.0000000000000000        1.0000000000000000     
 consum   0.0000000000000000        0.0000000000000000     
 reminPOC   5.7238265100589503E-009  0.31938539946545208        3.8580246913580245E-007   4.6452212088917443E-002
 reminPOSi   4.3614879592929244E-009  0.31938539946545208        7.7160493827160495E-008  0.17698017519598794     
 reminDOC   1.3650136867997079E-015   1.6428215788518846E-009
 graz           4           7           1   2.3317633710094641E-009   3.4425051621548381E-008  0.17200000000000001       0.10295324260767241       0.26143191307297170     
 graz           4           7           2   2.4385880514250644E-009   3.4425051621548381E-008  0.18000000000000002       0.10288449664983151       0.26143191307297170     
 graz           4           7           3   1.3644426958977167E-008   3.4425051621548381E-008   1.0000000000000000       0.10361897730422021       0.26143191307297170     
 graz           4           7           4   1.3660317998314385E-008   3.4425051621548381E-008   1.0000000000000000       0.10373965758264994       0.26143191307297170     
 graz           4           7           5   1.8143244575254524E-010   3.4425051621548381E-008  0.13500000000000001        1.0206226151393950E-002  0.26143191307297170     
 graz           4           7           6   2.1685227960697518E-009   3.4425051621548381E-008  0.16000000000000003       0.10292669081358766       0.26143191307297170     
 graz           4           8           1   1.1569093419681260E-008   4.0746475377942503E-008  0.85999999999999999       0.10295324260767241       0.31183811790788174     
 graz           4           8           2   1.2099106337210130E-008   4.0746475377942503E-008  0.90000000000000002       0.10288449664983151       0.31183811790788174     
 graz           4           8           3   2.7078845496760084E-009   4.0746475377942503E-008  0.20000000000000001       0.10361897730422021       0.31183811790788174     
 graz           4           8           4   2.7110382988242079E-009   4.0746475377942503E-008  0.20000000000000001       0.10373965758264994       0.31183811790788174     
 graz           4           8           5   9.0018092760576666E-010   4.0746475377942503E-008  0.67500000000000004        1.0206226151393950E-002  0.31183811790788174     
 graz           4           8           6   1.0759171844945127E-008   4.0746475377942503E-008  0.80000000000000004       0.10292669081358766       0.31183811790788174     
 prey           4           1           1   1.3900856790690725E-008
 prey           4           1           2   1.4537694388635195E-008
 prey           4           1           3   1.6352311508653174E-008
 prey           4           1           4   1.6371356297138591E-008
 prey           4           1           5   1.0816133733583118E-009
 prey           4           1           6   1.2927694641014879E-008
 pred           4           1           7   2.4691918631535971E-008
 pred           4           1           8   3.3139072587204022E-008
 mort           4           1   7.7036909177925204E-008   1.6534391534391535E-006  0.45255420315762818       0.10295324260767241        0.0000000000000000        0.0000000000000000       0.45255420315762818        1.0599370163434254E-002
 mort           4           2   7.6985468582404384E-008   1.6534391534391535E-006  0.45255420315762818       0.10288449664983151        0.0000000000000000        0.0000000000000000       0.45255420315762818        1.0585219650889191E-002
 mort           4           3   7.7535059037565701E-008   1.6534391534391535E-006  0.45255420315762818       0.10361897730422021        0.0000000000000000        0.0000000000000000       0.45255420315762818        1.0736892457572502E-002
 mort           4           4   7.7625360570703289E-008   1.6534391534391535E-006  0.45255420315762818       0.10373965758264994        0.0000000000000000        0.0000000000000000       0.45255420315762818        1.0761916555365460E-002
 mort           4           5   7.6370214007781662E-009   1.6534391534391535E-006  0.45255420315762818        1.0206226151393948E-002   0.0000000000000000        0.0000000000000000       0.45255420315762818        1.0416705225339773E-004
 mort           4           6   7.7017041244700285E-008   1.6534391534391535E-006  0.45255420315762818       0.10292669081358766        0.0000000000000000        0.0000000000000000       0.45255420315762818        1.0593903681835869E-002
 mort           4           7   7.4510934352256727E-008   2.3148148148148148E-007  0.45255420315762818       0.31482036353166487        4.1531008714324450E-008   9.2592592592592583E-007  0.45255420315762818        9.9111861294209624E-002
 mort           4           8   7.4544885914634213E-008   2.3148148148148148E-007  0.45255420315762818       0.31491246405943862        4.1555312017221150E-008   9.2592592592592583E-007  0.45255420315762818        9.9169860019987219E-002
 graz           4           7           1   2.3366991587477871E-009   3.4486314573173844E-008  0.17200000000000001       0.10305326671001050       0.26159786379131855     
 graz           4           7           2   2.4437536882183754E-009   3.4486314573173844E-008  0.18000000000000002       0.10298461101039605       0.26159786379131855     
 graz           4           7           3   1.3667556449566414E-008   3.4486314573173844E-008   1.0000000000000000       0.10367601220094017       0.26159786379131855     
 graz           4           7           4   1.3683442270183578E-008   3.4486314573173844E-008   1.0000000000000000       0.10379651497978029       0.26159786379131855     
 graz           4           7           5   1.8174649077987133E-010   3.4486314573173844E-008  0.13500000000000001        1.0212208508414403E-002  0.26159786379131855     
 graz           4           7           6   2.1731165156778198E-009   3.4486314573173844E-008  0.16000000000000003       0.10302685378730664       0.26159786379131855     
 graz           4           8           1   1.1593371634277949E-008   4.0829380953299024E-008  0.85999999999999999       0.10305326671001050       0.31212118848913462     
 graz           4           8           2   1.2124515295043589E-008   4.0829380953299024E-008  0.90000000000000002       0.10298461101039605       0.31212118848913462     
 graz           4           8           3   2.7124255282774055E-009   4.0829380953299024E-008  0.20000000000000001       0.10367601220094017       0.31212118848913462     
 graz           4           8           4   2.7155781843896105E-009   4.0829380953299024E-008  0.20000000000000001       0.10379651497978029       0.31212118848913462     
 graz           4           8           5   9.0172267274922448E-010   4.0829380953299024E-008  0.67500000000000004        1.0212208508414403E-002  0.31212118848913462     
 graz           4           8           6   1.0781767638561240E-008   4.0829380953299024E-008  0.80000000000000004       0.10302685378730664       0.31212118848913462     
 prey           4           2           1   1.3930070793025735E-008
 prey           4           2           2   1.4568268983261964E-008
 prey           4           2           3   1.6379981977843821E-008
 prey           4           2           4   1.6399020454573188E-008
 prey           4           2           5   1.0834691635290957E-009
 prey           4           2           6   1.2954884154239060E-008
 pred           4           2           7   2.4734925317169537E-008
 pred           4           2           8   3.3206305133905918E-008
 mort           4           1   7.7101011879910343E-008   1.6534391534391535E-006  0.45249115795802430       0.10305326671001050        0.0000000000000000        0.0000000000000000       0.45249115795802430        1.0619975779604558E-002
 mort           4           2   7.7049645978754645E-008   1.6534391534391535E-006  0.45249115795802430       0.10298461101039605        0.0000000000000000        0.0000000000000000       0.45249115795802430        1.0605830104962587E-002
 mort           4           3   7.7566929254751448E-008   1.6534391534391535E-006  0.45249115795802430       0.10367601220094017        0.0000000000000000        0.0000000000000000       0.45249115795802430        1.0748715505889494E-002
 mort           4           4   7.7657085408743725E-008   1.6534391534391535E-006  0.45249115795802430       0.10379651497978029        0.0000000000000000        0.0000000000000000       0.45249115795802430        1.0773716521947755E-002
 mort           4           5   7.6404332891554571E-009   1.6534391534391535E-006  0.45249115795802430        1.0212208508414401E-002   0.0000000000000000        0.0000000000000000       0.45249115795802430        1.0428920261933149E-004
 mort           4           6   7.7081250613410124E-008   1.6534391534391535E-006  0.45249115795802430       0.10302685378730664        0.0000000000000000        0.0000000000000000       0.45249115795802430        1.0614532601311059E-002
 mort           4           7   7.4652634106909318E-008   2.3148148148148148E-007  0.45249115795802430       0.31523281838882261        4.1634101000629249E-008   9.2592592592592583E-007  0.45249115795802430        9.9371729789360416E-002
 mort           4           8   7.4686675971021972E-008   2.3148148148148148E-007  0.45249115795802430       0.31532509020526595        4.1658478008012880E-008   9.2592592592592583E-007  0.45249115795802430        9.9429912512959101E-002
 graz           4           7           1   2.3481386614453541E-009   3.4645215119133585E-008  0.17200000000000001       0.10324120787573322       0.26199985262187186     
 graz           4           7           2   2.4557255944078819E-009   3.4645215119133585E-008  0.18000000000000002       0.10317277606448713       0.26199985262187186     
 graz           4           7           3   1.3729560562974076E-008   3.4645215119133585E-008   1.0000000000000000       0.10382798408648559       0.26199985262187186     
 graz           4           7           4   1.3745440771700010E-008   3.4645215119133585E-008   1.0000000000000000       0.10394807606257789       0.26199985262187186     
 graz           4           7           5   1.8258630073131844E-010   3.4645215119133585E-008  0.13500000000000001        1.0228035011019532E-002  0.26199985262187186     
 graz           4           7           6   2.1837632278749420E-009   3.4645215119133585E-008  0.16000000000000003       0.10321512687554323       0.26199985262187186     
 graz           4           8           1   1.1649859812521544E-008   4.1026189616663077E-008  0.85999999999999999       0.10324120787573322       0.31267417439385448     
 graz           4           8           2   1.2183632671531969E-008   4.1026189616663077E-008  0.90000000000000002       0.10317277606448713       0.31267417439385448     
 graz           4           8           3   2.7246679844318840E-009   4.1026189616663077E-008  0.20000000000000001       0.10382798408648559       0.31267417439385448     
 graz           4           8           4   2.7278194542916211E-009   4.1026189616663077E-008  0.20000000000000001       0.10394807606257789       0.31267417439385448     
 graz           4           8           5   9.0586848303816082E-010   4.1026189616663077E-008  0.67500000000000004        1.0228035011019532E-002  0.31267417439385448     
 graz           4           8           6   1.0834341210847894E-008   4.1026189616663077E-008  0.80000000000000004       0.10321512687554323       0.31267417439385448     
 prey           4           3           1   1.3997998473966898E-008
 prey           4           3           2   1.4639358265939852E-008
 prey           4           3           3   1.6454228547405960E-008
 prey           4           3           4   1.6473260225991631E-008
 prey           4           3           5   1.0884547837694793E-009
 prey           4           3           6   1.3018104438722835E-008
 pred           4           3           7   2.4848086581523068E-008
 pred           4           3           8   3.3366200437202812E-008
 mort           4           1   7.7214514087274282E-008   1.6534391534391535E-006  0.45233234946450224       0.10324120787573322        0.0000000000000000        0.0000000000000000       0.45233234946450224        1.0658747003640360E-002
 mort           4           2   7.7163333660754670E-008   1.6534391534391535E-006  0.45233234946450224       0.10317277606448713        0.0000000000000000        0.0000000000000000       0.45233234946450224        1.0644621720852808E-002
 mort           4           3   7.7653366372359421E-008   1.6534391534391535E-006  0.45233234946450224       0.10382798408648559        0.0000000000000000        0.0000000000000000       0.45233234946450224        1.0780250279463506E-002
 mort           4           4   7.7743183643684926E-008   1.6534391534391535E-006  0.45233234946450224       0.10394807606257789        0.0000000000000000        0.0000000000000000       0.45233234946450224        1.0805202517111478E-002
 mort           4           5   7.6495884704689989E-009   1.6534391534391535E-006  0.45233234946450224        1.0228035011019531E-002   0.0000000000000000        0.0000000000000000       0.45233234946450224        1.0461270018664129E-004
 mort           4           6   7.7195008002465541E-008   1.6534391534391535E-006  0.45233234946450224       0.10321512687554323        0.0000000000000000        0.0000000000000000       0.45233234946450224        1.0653362415934486E-002
 mort           4           7   7.5031805019545656E-008   2.3148148148148148E-007  0.45233234946450224       0.31633072538085472        4.1909902190996524E-008   9.2592592592592583E-007  0.45233234946450224       0.10006512781997773     
 mort           4           8   7.5066084382432020E-008   2.3148148148148148E-007  0.45233234946450224       0.31642344231705788        4.1934473482219019E-008   9.2592592592592583E-007  0.45233234946450224       0.10012379484777645     
 graz           4           7           1   2.4227405236514425E-009   3.5723350533594567E-008  0.17200000000000001       0.10434020095356117       0.26462166475022619     
 graz           4           7           2   2.5337940274847524E-009   3.5723350533594567E-008  0.18000000000000002       0.10427303518599350       0.26462166475022619     
 graz           4           7           3   1.4154680174252894E-008   3.5723350533594567E-008   1.0000000000000000       0.10485116809509211       0.26462166475022619     
 graz           4           7           4   1.4170613458147712E-008   3.5723350533594567E-008   1.0000000000000000       0.10496919431733071       0.26462166475022619     
 graz           4           7           5   1.8833146181253349E-010   3.5723350533594567E-008  0.13500000000000001        1.0333853991913750E-002  0.26462166475022619     
 graz           4           7           6   2.2531908882452316E-009   3.5723350533594567E-008  0.16000000000000003       0.10431606969627287       0.26462166475022619     
 graz           4           8           1   1.2018768886789089E-008   4.2321058082176639E-008  0.85999999999999999       0.10434020095356117       0.31597058417150142     
 graz           4           8           2   1.2569684836561977E-008   4.2321058082176639E-008  0.90000000000000002       0.10427303518599350       0.31597058417150142     
 graz           4           8           3   2.8087503060271816E-009   4.2321058082176639E-008  0.20000000000000001       0.10485116809509211       0.31597058417150142     
 graz           4           8           4   2.8119119893336680E-009   4.2321058082176639E-008  0.20000000000000001       0.10496919431733071       0.31597058417150142     
 graz           4           8           5   9.3427764613625392E-010   4.2321058082176639E-008  0.67500000000000004        1.0333853991913750E-002  0.31597058417150142     
 graz           4           8           6   1.1177664417328466E-008   4.2321058082176639E-008  0.80000000000000004       0.10431606969627287       0.31597058417150142     
 prey           4           4           1   1.4441509410440532E-008
 prey           4           4           2   1.5103478864046729E-008
 prey           4           4           3   1.6963430480280075E-008
 prey           4           4           4   1.6982525447481380E-008
 prey           4           4           5   1.1226091079487874E-009
 prey           4           4           6   1.3430855305573697E-008
 pred           4           4           7   2.5619457666398072E-008
 pred           4           4           8   3.4418912695277397E-008
 mort           4           1   7.7879423356089876E-008   1.6534391534391535E-006  0.45142212508030988       0.10434020095356117        0.0000000000000000        0.0000000000000000       0.45142212508030988        1.0886877535029527E-002
 mort           4           2   7.7829290893245895E-008   1.6534391534391535E-006  0.45142212508030988       0.10427303518599350        0.0000000000000000        0.0000000000000000       0.45142212508030988        1.0872865866899438E-002
 mort           4           3   7.8260808727908848E-008   1.6534391534391535E-006  0.45142212508030988       0.10485116809509211        0.0000000000000000        0.0000000000000000       0.45142212508030988        1.0993767450905261E-002
 mort           4           4   7.8348903384089645E-008   1.6534391534391535E-006  0.45142212508030988       0.10496919431733071        0.0000000000000000        0.0000000000000000       0.45142212508030988        1.1018531755629533E-002
 mort           4           5   7.7131784545293440E-009   1.6534391534391535E-006  0.45142212508030988        1.0333853991913748E-002   0.0000000000000000        0.0000000000000000       0.45142212508030988        1.0678853832619170E-004
 mort           4           6   7.7861411809386932E-008   1.6534391534391535E-006  0.45142212508030988       0.10431606969627287        0.0000000000000000        0.0000000000000000       0.45142212508030988        1.0881842396877658E-002
 mort           4           7   7.7633465617794489E-008   2.3148148148148148E-007  0.45142212508030988       0.32372970536368478        4.3805050907864587E-008   9.2592592592592583E-007  0.45142212508030988       0.10480092213485816     
 mort           4           8   7.7669356912204059E-008   2.3148148148148148E-007  0.45142212508030988       0.32382537385539423        4.3830945240739273E-008   9.2592592592592583E-007  0.45142212508030988       0.10486287275258584     
 graz           4           7           1   2.8599711034356255E-009   4.2138542431433430E-008  0.17200000000000001       0.11032321978490552       0.27958459568663852     
 graz           4           7           2   2.9912303805559144E-009   4.2138542431433430E-008  0.18000000000000002       0.11025824818930720       0.27958459568663852     
 graz           4           7           3   1.6693981472501780E-008   4.2138542431433430E-008   1.0000000000000000       0.11076273148233033       0.27958459568663852     
 graz           4           7           4   1.6710891053647442E-008   4.2138542431433430E-008   1.0000000000000000       0.11087492469393782       0.27958459568663852     
 graz           4           7           5   2.2246985898387723E-010   4.2138542431433430E-008  0.13500000000000001        1.0933800390159546E-002  0.27958459568663852     
 graz           4           7           6   2.6599985623087832E-009   4.2138542431433430E-008  0.16000000000000003       0.11030498737887326       0.27958459568663852     
 graz           4           8           1   1.4181235599481505E-008   4.9931667177318271E-008  0.85999999999999999       0.11032321978490552       0.33406222878710518     
 graz           4           8           2   1.4832087886493906E-008   4.9931667177318271E-008  0.90000000000000002       0.11025824818930720       0.33406222878710518     
 graz           4           8           3   3.3111003683993092E-009   4.9931667177318271E-008  0.20000000000000001       0.11076273148233033       0.33406222878710518     
 graz           4           8           4   3.3144542310145944E-009   4.9931667177318271E-008  0.20000000000000001       0.11087492469393782       0.33406222878710518     
 graz           4           8           5   1.1031221540119323E-009   4.9931667177318271E-008  0.67500000000000004        1.0933800390159546E-002  0.33406222878710518     
 graz           4           8           6   1.3189666937917024E-008   4.9931667177318271E-008  0.80000000000000004       0.11030498737887326       0.33406222878710518     
 prey           4           5           1   1.7041206702917130E-008
 prey           4           5           2   1.7823318267049820E-008
 prey           4           5           3   2.0005081840901089E-008
 prey           4           5           4   2.0025345284662035E-008
 prey           4           5           5   1.3255920129958096E-009
 prey           4           5           6   1.5849665500225808E-008
 pred           4           5           7   3.0217365983033059E-008
 pred           4           5           8   4.0607889201796014E-008
 mort           4           1   8.1489904635125957E-008   1.6534391534391535E-006  0.44673364700027901       0.11032321978490552        0.0000000000000000        0.0000000000000000       0.44673364700027901        1.2171212823708567E-002
 mort           4           2   8.1441913567247216E-008   1.6534391534391535E-006  0.44673364700027901       0.11025824818930720        0.0000000000000000        0.0000000000000000       0.44673364700027901        1.2156881293774863E-002
 mort           4           3   8.1814548589308955E-008   1.6534391534391535E-006  0.44673364700027901       0.11076273148233033        0.0000000000000000        0.0000000000000000       0.44673364700027901        1.2268382685426810E-002
 mort           4           4   8.1897419757612665E-008   1.6534391534391535E-006  0.44673364700027901       0.11087492469393782        0.0000000000000000        0.0000000000000000       0.44673364700027901        1.2293248925886383E-002
 mort           4           5   8.0762177974025244E-009   1.6534391534391535E-006  0.44673364700027901        1.0933800390159544E-002   0.0000000000000000        0.0000000000000000       0.44673364700027901        1.1954799097185300E-004
 mort           4           6   8.1476437324874012E-008   1.6534391534391535E-006  0.44673364700027901       0.11030498737887326        0.0000000000000000        0.0000000000000000       0.44673364700027901        1.2167190240653389E-002
 mort           4           7   9.3296202547326018E-008   2.3148148148148148E-007  0.44673364700027901       0.36609371875461788        5.5438243722523952E-008   9.2592592592592583E-007  0.44673364700027901       0.13402461091158527     
 mort           4           8   9.3342048154567107E-008   2.3148148148148148E-007  0.44673364700027901       0.36620654978609457        5.5472421408888573E-008   9.2592592592592583E-007  0.44673364700027901       0.13410723710623537     
 graz           4           7           1   5.7983502049774013E-009   8.4853381022399526E-008  0.17200000000000001       0.20782055278604475       0.52309630487113579     
 graz           4           7           2   6.0593507929425389E-009   8.4853381022399526E-008  0.18000000000000002       0.20752293030606875       0.52309630487113579     
 graz           4           7           3   3.3577520569043249E-008   8.4853381022399526E-008   1.0000000000000000       0.20699560494548211       0.52309630487113579     
 graz           4           7           4   3.3595945926239618E-008   8.4853381022399526E-008   1.0000000000000000       0.20710919188979968       0.52309630487113579     
 graz           4           7           5   4.4132888272202045E-010   8.4853381022399526E-008  0.13500000000000001        2.0153063939423815E-002  0.52309630487113579     
 graz           4           7           6   5.3808846464746993E-009   8.4853381022399526E-008  0.16000000000000003       0.20732238668587311       0.52309630487113579     
 graz           4           8           1   2.8549074262622185E-008   1.0027935250106133E-007  0.85999999999999999       0.20782055278604475       0.62777849954632625     
 graz           4           8           2   2.9834151035323570E-008   1.0027935250106133E-007  0.90000000000000002       0.20752293030606875       0.62777849954632625     
 graz           4           8           3   6.6129646840403356E-009   1.0027935250106133E-007  0.20000000000000001       0.20699560494548211       0.62777849954632625     
 graz           4           8           4   6.6165934879057030E-009   1.0027935250106133E-007  0.20000000000000001       0.20710919188979968       0.62777849954632625     
 graz           4           8           5   2.1729510294592744E-009   1.0027935250106133E-007  0.67500000000000004        2.0153063939423815E-002  0.62777849954632625     
 graz           4           8           6   2.6493618001710272E-008   1.0027935250106133E-007  0.80000000000000004       0.20732238668587311       0.62777849954632625     
 prey           4           6           1   3.4347424467599588E-008
 prey           4           6           2   3.5893501828266105E-008
 prey           4           6           3   4.0190485253083588E-008
 prey           4           6           4   4.0212539414145324E-008
 prey           4           6           5   2.6142799121812947E-009
 prey           4           6           6   3.1874502648184968E-008
 pred           4           6           7   6.0810739007072957E-008
 pred           4           6           8   8.1546437818043673E-008
 mort           4           1   1.5237947118860100E-007   1.6534391534391535E-006  0.44345519699269326       0.20782055278604475        0.0000000000000000        0.0000000000000000       0.44345519699269326        4.3189382160297211E-002
 mort           4           2   1.5216124659288802E-007   1.6534391534391535E-006  0.44345519699269326       0.20752293030606875        0.0000000000000000        0.0000000000000000       0.44345519699269326        4.3065766602817468E-002
 mort           4           3   1.5177459783022566E-007   1.6534391534391535E-006  0.44345519699269326       0.20699560494548211        0.0000000000000000        0.0000000000000000       0.44345519699269326        4.2847180466746099E-002
 mort           4           4   1.5185788275213067E-007   1.6534391534391535E-006  0.44345519699269326       0.20710919188979968        0.0000000000000000        0.0000000000000000       0.44345519699269326        4.2894217365245867E-002
 mort           4           5   1.4776754198517745E-008   1.6534391534391535E-006  0.44345519699269326        2.0153063939423815E-002   0.0000000000000000        0.0000000000000000       0.44345519699269326        4.0614598614650453E-004
 mort           4           6   1.5201420275922485E-007   1.6534391534391535E-006  0.44345519699269326       0.20732238668587311        0.0000000000000000        0.0000000000000000       0.44345519699269326        4.2982572021126694E-002
 mort           4           7   1.1213203487435667E-007   2.3148148148148148E-007  0.44345519699269326       0.41232084213524062        6.9806613514801979E-008   9.2592592592592583E-007  0.44345519699269326       0.17000847685911402     
 mort           4           8   1.1222917916614668E-007   2.3148148148148148E-007  0.44345519699269326       0.41254095157431819        6.9881163205974839E-008   9.2592592592592583E-007  0.44345519699269326       0.17019003672584396     
 graz           4           7           1   8.9701950144834308E-009   1.3078508147215553E-007  0.17200000000000001       0.30182279484221869       0.75689703791005380     
 graz           4           7           2   9.3796185357640879E-009   1.3078508147215553E-007  0.18000000000000002       0.30157217587362362       0.75689703791005380     
 graz           4           7           3   5.1706366304086268E-008   1.3078508147215553E-007   1.0000000000000000       0.29924204699897172       0.75689703791005380     
 graz           4           7           4   5.1714758931813083E-008   1.3078508147215553E-007   1.0000000000000000       0.29929061794448941       0.75689703791005380     
 graz           4           7           5   6.8563158972741730E-010   1.3078508147215553E-007  0.13500000000000001        2.9392440580732707E-002  0.75689703791005380     
 graz           4           7           6   8.3285110962812534E-009   1.3078508147215553E-007  0.16000000000000003       0.30124925698799959       0.75689703791005380     
 graz           4           8           1   4.3879455513943304E-008   1.5409230286321915E-007  0.85999999999999999       0.30182279484221869       0.91152839782165573     
 graz           4           8           2   4.5882230387777123E-008   1.5409230286321915E-007  0.90000000000000002       0.30157217587362362       0.91152839782165573     
 graz           4           8           3   1.0117270344131835E-008   1.5409230286321915E-007  0.20000000000000001       0.29924204699897172       0.91152839782165573     
 graz           4           8           4   1.0118912511038526E-008   1.5409230286321915E-007  0.20000000000000001       0.29929061794448941       0.91152839782165573     
 graz           4           8           5   3.3539004215429495E-009   1.5409230286321915E-007  0.67500000000000004        2.9392440580732707E-002  0.91152839782165573     
 graz           4           8           6   4.0740533684785428E-008   1.5409230286321915E-007  0.80000000000000004       0.30124925698799959       0.91152839782165573     
 prey           4           7           1   5.2849650528426733E-008
 prey           4           7           2   5.5261848923541211E-008
 prey           4           7           3   6.1823636648218103E-008
 prey           4           7           4   6.1833671442851609E-008
 prey           4           7           5   4.0395320112703671E-009
 prey           4           7           6   4.9069044781066685E-008
 pred           4           7           7   9.3682482683221956E-008
 pred           4           7           8   1.2529746057609237E-007
 mort           4           1   2.1975197480444657E-007   1.6534391534391535E-006  0.44034445586261112       0.30182279484221869        0.0000000000000000        0.0000000000000000       0.44034445586261112        9.1096999486368027E-002
 mort           4           2   2.1956950345300007E-007   1.6534391534391535E-006  0.44034445586261112       0.30157217587362362        0.0000000000000000        0.0000000000000000       0.44034445586261112        9.0945777261151772E-002
 mort           4           3   2.1787297678071448E-007   1.6534391534391535E-006  0.44034445586261112       0.29924204699897172        0.0000000000000000        0.0000000000000000       0.44034445586261112        8.9545802692134802E-002
 mort           4           4   2.1790834044899280E-007   1.6534391534391535E-006  0.44034445586261112       0.29929061794448941        0.0000000000000000        0.0000000000000000       0.44034445586261112        8.9574873989594322E-002
 mort           4           5   2.1400129388222346E-008   1.6534391534391535E-006  0.44034445586261112        2.9392440580732707E-002   0.0000000000000000        0.0000000000000000       0.44034445586261112        8.6391556329190285E-004
 mort           4           6   2.1933439177810285E-007   1.6534391534391535E-006  0.44034445586261112       0.30124925698799959        0.0000000000000000        0.0000000000000000       0.44034445586261112        9.0751114835821822E-002
 mort           4           7   1.3228842906699501E-007   2.3148148148148148E-007  0.44034445586261112       0.45816289499387947        8.5587158073356482E-008   9.2592592592592583E-007  0.44034445586261112       0.20991323834917261     
 mort           4           8   1.3244712997739853E-007   2.3148148148148148E-007  0.44034445586261112       0.45849652611006281        8.5711851434613104E-008   9.2592592592592583E-007  0.44034445586261112       0.21021906445499550     
 graz           4           7           1   4.3633405104796009E-009   6.3404325141187453E-008  0.17200000000000001       0.19691782160256988       0.49216785804442065     
 graz           4           7           2   4.5647495028692830E-009   6.3404325141187453E-008  0.18000000000000002       0.19685153622614990       0.49216785804442065     
 graz           4           7           3   2.5053334082104988E-008   6.3404325141187453E-008   1.0000000000000000       0.19447325942833882       0.49216785804442065     
 graz           4           7           4   2.5031362441968521E-008   6.3404325141187453E-008   1.0000000000000000       0.19430270741884093       0.49216785804442065     
 graz           4           7           5   3.3676763328299290E-010   6.3404325141187453E-008  0.13500000000000001        1.9363815669426954E-002  0.49216785804442065     
 graz           4           7           6   4.0547709704820726E-009   6.3404325141187453E-008  0.16000000000000003       0.19671646403449553       0.49216785804442065     
 graz           4           8           1   2.1488351524410445E-008   7.5461991495836343E-008  0.85999999999999999       0.19691782160256988       0.59471464935564056     
 graz           4           8           2   2.2480240014032603E-008   7.5461991495836343E-008  0.90000000000000002       0.19685153622614990       0.59471464935564056     
 graz           4           8           3   4.9352540634569100E-009   7.5461991495836343E-008  0.20000000000000001       0.19447325942833882       0.59471464935564056     
 graz           4           8           4   4.9309258720110552E-009   7.5461991495836343E-008  0.20000000000000001       0.19430270741884093       0.59471464935564056     
 graz           4           8           5   1.6584956568593087E-009   7.5461991495836343E-008  0.67500000000000004        1.9363815669426954E-002  0.59471464935564056     
 graz           4           8           6   1.9968724365066028E-008   7.5461991495836343E-008  0.80000000000000004       0.19671646403449553       0.59471464935564056     
 prey           4           8           1   2.5851692034890048E-008
 prey           4           8           2   2.7044989516901887E-008
 prey           4           8           3   2.9988588145561896E-008
 prey           4           8           4   2.9962288313979576E-008
 prey           4           8           5   1.9952632901423015E-009
 prey           4           8           6   2.4023495335548100E-008
 pred           4           8           7   4.5395608666104386E-008
 pred           4           8           8   6.1356211190215881E-008
 mort           4           1   1.4235910714670947E-007   1.6534391534391535E-006  0.43723207631302707       0.19691782160256988        0.0000000000000000        0.0000000000000000       0.43723207631302707        3.8776628464701535E-002
 mort           4           2   1.4231118701978934E-007   1.6534391534391535E-006  0.43723207631302707       0.19685153622614990        0.0000000000000000        0.0000000000000000       0.43723207631302707        3.8750527314595204E-002
 mort           4           3   1.4059184359658490E-007   1.6534391534391535E-006  0.43723207631302707       0.19447325942833882        0.0000000000000000        0.0000000000000000       0.43723207631302707        3.7819848632681972E-002
 mort           4           4   1.4046854530089689E-007   1.6534391534391535E-006  0.43723207631302707       0.19430270741884093        0.0000000000000000        0.0000000000000000       0.43723207631302707        3.7753542110291700E-002
 mort           4           5   1.3998811723687627E-008   1.6534391534391535E-006  0.43723207631302707        1.9363815669426954E-002   0.0000000000000000        0.0000000000000000       0.43723207631302707        3.7495735727954485E-004
 mort           4           6   1.4221353838419212E-007   1.6534391534391535E-006  0.43723207631302707       0.19671646403449553        0.0000000000000000        0.0000000000000000       0.43723207631302707        3.8697367222234970E-002
 mort           4           7   7.7687165345859754E-008   2.3148148148148148E-007  0.43723207631302707       0.33054234923469522        4.4232601071491353E-008   9.2592592592592583E-007  0.43723207631302707       0.10925824463759122     
 mort           4           8   7.7749025003525670E-008   2.3148148148148148E-007  0.43723207631302707       0.33071002896923168        4.4277489673951949E-008   9.2592592592592583E-007  0.43723207631302707       0.10936912326083006     
 graz           4           7           1   1.2940986942717502E-009   1.8799984514384032E-008  0.17200000000000001        9.2325689126531232E-002  0.23069654870155604     
 graz           4           7           2   1.3541717239241164E-009   1.8799984514384032E-008  0.18000000000000002        9.2317671508809526E-002  0.23069654870155604     
 graz           4           7           3   7.4266922366664404E-009   1.8799984514384032E-008   1.0000000000000000        9.1133706304742837E-002  0.23069654870155604     
 graz           4           7           4   7.4214054843629853E-009   1.8799984514384032E-008   1.0000000000000000        9.1068832022037222E-002  0.23069654870155604     
 graz           4           7           5   1.0025924611376551E-010   1.8799984514384032E-008  0.13500000000000001        9.1132707272214512E-003  0.23069654870155604     
 graz           4           7           6   1.2033571290449752E-009   1.8799984514384032E-008  0.16000000000000003        9.2290746407825031E-002  0.23069654870155604     
 graz           4           8           1   6.4224361306275537E-009   2.2560241367993271E-008  0.85999999999999999        9.2325689126531232E-002  0.27891055953923594     
 graz           4           8           2   6.7205704211754115E-009   2.2560241367993271E-008  0.90000000000000002        9.2317671508809526E-002  0.27891055953923594     
 graz           4           8           3   1.4743066124074658E-009   2.2560241367993271E-008  0.20000000000000001        9.1133706304742837E-002  0.27891055953923594     
 graz           4           8           4   1.4732571150497235E-009   2.2560241367993271E-008  0.20000000000000001        9.1068832022037222E-002  0.27891055953923594     
 graz           4           8           5   4.9757302709658118E-010   2.2560241367993271E-008  0.67500000000000004        9.1132707272214512E-003  0.27891055953923594     
 graz           4           8           6   5.9720980616365356E-009   2.2560241367993271E-008  0.80000000000000004        9.2290746407825031E-002  0.27891055953923594     
 prey           4           9           1   7.7165348248993039E-009
 prey           4           9           2   8.0747421450995281E-009
 prey           4           9           3   8.9009988490739070E-009
 prey           4           9           4   8.8946625994127079E-009
 prey           4           9           5   5.9783227321034666E-010
 prey           4           9           6   7.1754551906815110E-009
 pred           4           9           7   1.3459232894165385E-008
 pred           4           9           8   1.8342949467140339E-008
 mort           4           1   6.6037719450624782E-008   1.6534391534391535E-006  0.43259479676345675        9.2325689126531232E-002   0.0000000000000000        0.0000000000000000       0.43259479676345675        8.5240328726888873E-003
 mort           4           2   6.6031984695815186E-008   1.6534391534391535E-006  0.43259479676345675        9.2317671508809526E-002   0.0000000000000000        0.0000000000000000       0.43259479676345675        8.5225524728084617E-003
 mort           4           3   6.5185130881615045E-008   1.6534391534391535E-006  0.43259479676345675        9.1133706304742837E-002   0.0000000000000000        0.0000000000000000       0.43259479676345675        8.3053524248391242E-003
 mort           4           4   6.5138728306975147E-008   1.6534391534391535E-006  0.43259479676345675        9.1068832022037222E-002   0.0000000000000000        0.0000000000000000       0.43259479676345675        8.2935321658580315E-003
 mort           4           5   6.5184416304443165E-009   1.6534391534391535E-006  0.43259479676345675        9.1132707272214494E-003   0.0000000000000000        0.0000000000000000       0.43259479676345675        8.3051703347631359E-005
 mort           4           6   6.6012726001059528E-008   1.6534391534391535E-006  0.43259479676345675        9.2290746407825031E-002   0.0000000000000000        0.0000000000000000       0.43259479676345675        8.5175818725134692E-003
 mort           4           7   3.6787535799210995E-008   2.3148148148148148E-007  0.43259479676345675       0.20282218781792513        1.6477391558883451E-008   9.2592592592592583E-007  0.43259479676345675        4.1136839871249699E-002
 mort           4           8   3.6801039928054794E-008   2.3148148148148148E-007  0.43259479676345675       0.20287360480685671        1.6485746909514969E-008   9.2592592592592583E-007  0.43259479676345675        4.1157699527328673E-002
 graz           4           7           1   6.3688991624172930E-010   9.2916466822195075E-009  0.17200000000000001        5.6537204499610506E-002  0.14187017099319024     
 graz           4           7           2   6.6647878228539343E-010   9.2916466822195075E-009  0.18000000000000002        5.6534327157830334E-002  0.14187017099319024     
 graz           4           7           3   3.6738451942245391E-009   9.2916466822195075E-009   1.0000000000000000        5.6094367740492229E-002  0.14187017099319024     
 graz           4           7           4   3.6724131414398146E-009   9.2916466822195075E-009   1.0000000000000000        5.6072502340268941E-002  0.14187017099319024     
 graz           4           7           5   4.9651660036574482E-011   9.2916466822195075E-009  0.13500000000000001        5.6156290183495038E-003  0.14187017099319024     
 graz           4           7           6   5.9236798799145641E-010   9.2916466822195075E-009  0.16000000000000003        5.6528830828808878E-002  0.14187017099319024     
 graz           4           8           1   3.1699435505311672E-009   1.1145191705333707E-008  0.85999999999999999        5.6537204499610506E-002  0.17094987857829758     
 graz           4           8           2   3.3172139542394330E-009   1.1145191705333707E-008  0.90000000000000002        5.6534327157830334E-002  0.17094987857829758     
 graz           4           8           3   7.3142196678534622E-010   1.1145191705333707E-008  0.20000000000000001        5.6094367740492229E-002  0.17094987857829758     
 graz           4           8           4   7.3113686090609188E-010   1.1145191705333707E-008  0.20000000000000001        5.6072502340268941E-002  0.17094987857829758     
 graz           4           8           5   2.4712741635929346E-010   1.1145191705333707E-008  0.67500000000000004        5.6156290183495038E-003  0.17094987857829758     
 graz           4           8           6   2.9483479565123758E-009   1.1145191705333707E-008  0.80000000000000004        5.6528830828808878E-002  0.17094987857829758     
 prey           4          10           1   3.8068334667728964E-009
 prey           4          10           2   3.9836927365248266E-009
 prey           4          10           3   4.4052671610098852E-009
 prey           4          10           4   4.4035500023459063E-009
 prey           4          10           5   2.9677907639586795E-010
 prey           4          10           6   3.5407159445038320E-009
 pred           4          10           7   6.6551620071535442E-009
 pred           4          10           8   9.0624092470361102E-009
 mort           4           1   4.0007954526578455E-008   1.6534391534391535E-006  0.42798032042495743        5.6537204499610506E-002   0.0000000000000000        0.0000000000000000       0.42798032042495743        3.1964554926307786E-003
 mort           4           2   4.0005918406113753E-008   1.6534391534391535E-006  0.42798032042495743        5.6534327157830334E-002   0.0000000000000000        0.0000000000000000       0.42798032042495743        3.1961301471885926E-003
 mort           4           3   3.9694585779780526E-008   1.6534391534391535E-006  0.42798032042495743        5.6094367740492229E-002   0.0000000000000000        0.0000000000000000       0.42798032042495743        3.1465780922055753E-003
 mort           4           4   3.9679112960677045E-008   1.6534391534391535E-006  0.42798032042495743        5.6072502340268941E-002   0.0000000000000000        0.0000000000000000       0.42798032042495743        3.1441255186994660E-003
 mort           4           5   3.9738404541351017E-009   1.6534391534391535E-006  0.42798032042495743        5.6156290183495029E-003   0.0000000000000000        0.0000000000000000       0.42798032042495743        3.1535289271729002E-005
 mort           4           6   4.0002028987040067E-008   1.6534391534391535E-006  0.42798032042495743        5.6528830828808878E-002   0.0000000000000000        0.0000000000000000       0.42798032042495743        3.1955087148720931E-003
 mort           4           7   2.6543314238827930E-008   2.3148148148148148E-007  0.42798032042495743       0.16241352842668091        1.0453084160726349E-008   9.2592592592592583E-007  0.42798032042495743        2.6378154216004288E-002
 mort           4           8   2.6549153033268858E-008   2.3148148148148148E-007  0.42798032042495743       0.16243915948716092        1.0456383698343881E-008   9.2592592592592583E-007  0.42798032042495743        2.6386480534895302E-002
 graz           4           7           1   4.5874498927969460E-010   6.7116676820493535E-009  0.17200000000000001        4.3970470699161247E-002  0.11064930054177456     
 graz           4           7           2   4.8006223206663518E-010   6.7116676820493535E-009  0.18000000000000002        4.3968663321407774E-002  0.11064930054177456     
 graz           4           7           3   2.6553674882415748E-009   6.7116676820493535E-009   1.0000000000000000        4.3776684003756443E-002  0.11064930054177456     
 graz           4           7           4   2.6548772200015616E-009   6.7116676820493535E-009   1.0000000000000000        4.3768601386975463E-002  0.11064930054177456     
 graz           4           7           5   3.5895514281651382E-011   6.7116676820493535E-009  0.13500000000000001        4.3835366244200898E-003  0.11064930054177456     
 graz           4           7           6   4.2672023817823622E-010   6.7116676820493535E-009  0.16000000000000003        4.3968483428980056E-002  0.11064930054177456     
 graz           4           8           1   2.2856355761816521E-009   8.0407059724775996E-009  0.85999999999999999        4.3970470699161247E-002  0.13302913283335965     
 graz           4           8           2   2.3918458883126618E-009   8.0407059724775996E-009  0.90000000000000002        4.3968663321407774E-002  0.13302913283335965     
 graz           4           8           3   5.2920053980236021E-010   8.0407059724775996E-009  0.20000000000000001        4.3776684003756443E-002  0.13302913283335965     
 graz           4           8           4   5.2910283196402451E-010   8.0407059724775996E-009  0.20000000000000001        4.3768601386975463E-002  0.13302913283335965     
 graz           4           8           5   1.7884460077984002E-010   8.0407059724775996E-009  0.67500000000000004        4.3835366244200898E-003  0.13302913283335965     
 graz           4           8           6   2.1260765354370609E-009   8.0407059724775996E-009  0.80000000000000004        4.3968483428980056E-002  0.13302913283335965     
 prey           4          11           1   2.7443805654613467E-009
 prey           4          11           2   2.8719081203792972E-009
 prey           4          11           3   3.1845680280439350E-009
 prey           4          11           4   3.1839800519655863E-009
 prey           4          11           5   2.1474011506149141E-010
 prey           4          11           6   2.5527967736152971E-009
 pred           4          11           7   4.8087649561169971E-009
 pred           4          11           8   6.5383951151587181E-009
 mort           4           1   3.0794428587015023E-008   1.6534391534391535E-006  0.42356768334030942        4.3970470699161247E-002   0.0000000000000000        0.0000000000000000       0.42356768334030942        1.9334022935057979E-003
 mort           4           2   3.0793162801948952E-008   1.6534391534391535E-006  0.42356768334030942        4.3968663321407774E-002   0.0000000000000000        0.0000000000000000       0.42356768334030942        1.9332433542713092E-003
 mort           4           3   3.0658711355476018E-008   1.6534391534391535E-006  0.42356768334030942        4.3776684003756443E-002   0.0000000000000000        0.0000000000000000       0.42356768334030942        1.9163980623647452E-003
 mort           4           4   3.0653050748225283E-008   1.6534391534391535E-006  0.42356768334030942        4.3768601386975463E-002   0.0000000000000000        0.0000000000000000       0.42356768334030942        1.9156904673719504E-003
 mort           4           5   3.0699809074785338E-009   1.6534391534391535E-006  0.42356768334030942        4.3835366244200889E-003   0.0000000000000000        0.0000000000000000       0.42356768334030942        1.9215393337632269E-005
 mort           4           6   3.0793036815475975E-008   1.6534391534391535E-006  0.42356768334030942        4.3968483428980056E-002   0.0000000000000000        0.0000000000000000       0.42356768334030942        1.9332275350444938E-003
 mort           4           7   2.3793839189438806E-008   2.3148148148148148E-007  0.42356768334030942       0.15121333727892267        8.9676625780059090E-009   9.2592592592592583E-007  0.42356768334030942        2.2865473371029222E-002
 mort           4           8   2.3797861029163157E-008   2.3148148148148148E-007  0.42356768334030942       0.15123189977879301        8.9698644003536181E-009   9.2592592592592583E-007  0.42356768334030942        2.2871087510702891E-002
 graz           4           7           1   3.0495280227907794E-010   4.4625751344057308E-009  0.17200000000000001        3.1714139764600822E-002   7.9824148654996957E-002
 graz           4           7           2   3.1912577326125111E-010   4.4625751344057308E-009  0.18000000000000002        3.1713058538340076E-002   7.9824148654996957E-002
 graz           4           7           3   1.7655542536491622E-009   4.4625751344057308E-009   1.0000000000000000        3.1581286803481622E-002   7.9824148654996957E-002
 graz           4           7           4   1.7654006047285919E-009   4.4625751344057308E-009   1.0000000000000000        3.1578538414063655E-002   7.9824148654996957E-002
 graz           4           7           5   2.3864369755532536E-011   4.4625751344057308E-009  0.13500000000000001        3.1620224937383727E-003   7.9824148654996957E-002
 graz           4           7           6   2.8367733073211496E-010   4.4625751344057308E-009  0.16000000000000003        3.1714173902402762E-002   7.9824148654996957E-002
 graz           4           8           1   1.5208642656555385E-009   5.3505726049628277E-009  0.85999999999999999        3.1714139764600822E-002   9.5953582230767442E-002
 graz           4           8           2   1.5915478761810579E-009   5.3505726049628277E-009  0.90000000000000002        3.1713058538340076E-002   9.5953582230767442E-002
 graz           4           8           3   3.5220773226327802E-010   5.3505726049628277E-009  0.20000000000000001        3.1581286803481622E-002   9.5953582230767442E-002
 graz           4           8           4   3.5217708107384736E-010   5.3505726049628277E-009  0.20000000000000001        3.1578538414063655E-002   9.5953582230767442E-002
 graz           4           8           5   1.1901667048911166E-010   5.3505726049628277E-009  0.67500000000000004        3.1620224937383727E-003   9.5953582230767442E-002
 graz           4           8           6   1.4147589792999947E-009   5.3505726049628277E-009  0.80000000000000004        3.1714173902402762E-002   9.5953582230767442E-002
 prey           4          12           1   1.8258170679346164E-009
 prey           4          12           2   1.9106736494423089E-009
 prey           4          12           3   2.1177619859124402E-009
 prey           4          12           4   2.1175776858024392E-009
 prey           4          12           5   1.4288104024464421E-010
 prey           4          12           6   1.6984363100321096E-009
 pred           4          12           7   3.1974119971133943E-009
 pred           4          12           8   4.3508965653039759E-009
 mort           4           1   2.1989761623065575E-008   1.6534391534391535E-006  0.41935262719863514        3.1714139764600822E-002   0.0000000000000000        0.0000000000000000       0.41935262719863514        1.0057866610086350E-003
 mort           4           2   2.1989011928831051E-008   1.6534391534391535E-006  0.41935262719863514        3.1713058538340076E-002   0.0000000000000000        0.0000000000000000       0.41935262719863514        1.0057180818561844E-003
 mort           4           3   2.1897644826973554E-008   1.6534391534391535E-006  0.41935262719863514        3.1581286803481622E-002   0.0000000000000000        0.0000000000000000       0.41935262719863514        9.9737767616376238E-004
 mort           4           4   2.1895739165063847E-008   1.6534391534391535E-006  0.41935262719863514        3.1578538414063655E-002   0.0000000000000000        0.0000000000000000       0.41935262719863514        9.9720408836849396E-004
 mort           4           5   2.1924643518689913E-009   1.6534391534391535E-006  0.41935262719863514        3.1620224937383714E-003   0.0000000000000000        0.0000000000000000       0.41935262719863514        9.9983862509074295E-006
 mort           4           6   2.1989785293331663E-008   1.6534391534391535E-006  0.41935262719863514        3.1714173902402762E-002   0.0000000000000000        0.0000000000000000       0.41935262719863514        1.0057888263118443E-003
 mort           4           7   2.1212461237265555E-008   2.3148148148148148E-007  0.41935262719863514       0.14005760586080218        7.6167378629881563E-009   9.2592592592592583E-007  0.41935262719863514        1.9616132959459808E-002
 mort           4           8   2.1215013475040872E-008   2.3148148148148148E-007  0.41935262719863514       0.14007000481613391        7.6180865048160476E-009   9.2592592592592583E-007  0.41935262719863514        1.9619606249191776E-002
 graz           4           7           1   2.1870669095695698E-010   3.2036021955281816E-009  0.17200000000000001        2.4644181782120137E-002   6.2089671684137850E-002
 graz           4           7           2   2.2887237029779949E-010   3.2036021955281816E-009  0.18000000000000002        2.4643457690632309E-002   6.2089671684137850E-002
 graz           4           7           3   1.2677453165488397E-009   3.2036021955281816E-009   1.0000000000000000        2.4570432182090329E-002   6.2089671684137850E-002
 graz           4           7           4   1.2676935464267775E-009   3.2036021955281816E-009   1.0000000000000000        2.4569428814728934E-002   6.2089671684137850E-002
 graz           4           7           5   1.7131958447198712E-011   3.2036021955281816E-009  0.13500000000000001        2.4595407626930520E-003   6.2089671684137850E-002
 graz           4           7           6   2.0345231285060952E-010   3.2036021955281816E-009  0.16000000000000003        2.4644693959478443E-002   6.2089671684137850E-002
 graz           4           8           1   1.0913603009666879E-009   3.8402575836052350E-009  0.85999999999999999        2.4644181782120137E-002   7.4577025635956820E-002
 graz           4           8           2   1.1420876875702198E-009   3.8402575836052350E-009  0.90000000000000002        2.4643457690632309E-002   7.4577025635956820E-002
 graz           4           8           3   2.5304519110302792E-010   3.8402575836052350E-009  0.20000000000000001        2.4570432182090329E-002   7.4577025635956820E-002
 graz           4           8           4   2.5303485765492941E-010   3.8402575836052350E-009  0.20000000000000001        2.4569428814728934E-002   7.4577025635956820E-002
 graz           4           8           5   8.5489562506175494E-011   3.8402575836052350E-009  0.67500000000000004        2.4595407626930520E-003   7.4577025635956820E-002
 graz           4           8           6   1.0152399838041941E-009   3.8402575836052350E-009  0.80000000000000004        2.4644693959478443E-002   7.4577025635956820E-002
 prey           4          13           1   1.3100669919236447E-009
 prey           4          13           2   1.3709600578680194E-009
 prey           4          13           3   1.5207905076518676E-009
 prey           4          13           4   1.5207284040817069E-009
 prey           4          13           5   1.0262152095337420E-010
 prey           4          13           6   1.2186922966548036E-009
 pred           4          13           7   2.2956164234015199E-009
 pred           4          13           8   3.1228140717599835E-009
 mort           4           1   1.6918008264731210E-008   1.6534391534391535E-006  0.41518973885888838        2.4644181782120137E-002   0.0000000000000000        0.0000000000000000       0.41518973885888838        6.0733569571018203E-004
 mort           4           2   1.6917511182463119E-008   1.6534391534391535E-006  0.41518973885888838        2.4643457690632309E-002   0.0000000000000000        0.0000000000000000       0.41518973885888838        6.0730000694998471E-004
 mort           4           3   1.6867379830244893E-008   1.6534391534391535E-006  0.41518973885888838        2.4570432182090329E-002   0.0000000000000000        0.0000000000000000       0.41518973885888838        6.0370613761470009E-004
 mort           4           4   1.6866691027611364E-008   1.6534391534391535E-006  0.41518973885888838        2.4569428814728934E-002   0.0000000000000000        0.0000000000000000       0.41518973885888838        6.0365683228203240E-004
 mort           4           5   1.6884525247607786E-009   1.6534391534391535E-006  0.41518973885888838        2.4595407626930507E-003   0.0000000000000000        0.0000000000000000       0.41518973885888838        6.0493407633487137E-006
 mort           4           6   1.6918359869862896E-008   1.6534391534391535E-006  0.41518973885888838        2.4644693959478443E-002   0.0000000000000000        0.0000000000000000       0.41518973885888838        6.0736094035635326E-004
 mort           4           7   1.9026067376712182E-008   2.3148148148148148E-007  0.41518973885888838       0.13017835672363093        6.5147900773687686E-009   9.2592592592592583E-007  0.41518973885888838        1.6946404559264907E-002
 mort           4           8   1.9027817115273019E-008   2.3148148148148148E-007  0.41518973885888838       0.13018727475274589        6.5156827154251251E-009   9.2592592592592583E-007  0.41518973885888838        1.6948726507546946E-002
 graz           4           7           1   1.5800941820917050E-010   2.3167448171559036E-009  0.17200000000000001        1.9303584918088028E-002   4.8681241287762494E-002
 graz           4           7           2   1.6535460484937482E-010   2.3167448171559036E-009  0.18000000000000002        1.9303107621583313E-002   4.8681241287762494E-002
 graz           4           7           3   9.1700391310434451E-010   2.3167448171559036E-009   1.0000000000000000        1.9268798369626788E-002   4.8681241287762494E-002
 graz           4           7           4   9.1700387905022704E-010   2.3167448171559036E-009   1.0000000000000000        1.9268797654055227E-002   4.8681241287762494E-002
 graz           4           7           5   1.2382057217537292E-011   2.3167448171559036E-009  0.13500000000000001        1.9272696458575297E-003   4.8681241287762494E-002
 graz           4           7           6   1.4699094472524955E-010   2.3167448171559036E-009  0.16000000000000003        1.9304299275584864E-002   4.8681241287762494E-002
 graz           4           8           1   7.8881862238345613E-010   2.7761632186776566E-009  0.85999999999999999        1.9303584918088028E-002   5.8425745525138816E-002
 graz           4           8           2   8.2548744929480736E-010   2.7761632186776566E-009  0.90000000000000002        1.9303107621583313E-002   5.8425745525138816E-002
 graz           4           8           3   1.8311560707037049E-010   2.7761632186776566E-009  0.20000000000000001        1.9268798369626788E-002   5.8425745525138816E-002
 graz           4           8           4   1.8311560027013739E-010   2.7761632186776566E-009  0.20000000000000001        1.9268797654055227E-002   5.8425745525138816E-002
 graz           4           8           5   6.1814019868620931E-011   2.7761632186776566E-009  0.67500000000000004        1.9272696458575297E-003   5.8425745525138816E-002
 graz           4           8           6   7.3381191979026406E-010   2.7761632186776566E-009  0.80000000000000004        1.9304299275584864E-002   5.8425745525138816E-002
 prey           4          14           1   9.4682804059262660E-010
 prey           4          14           2   9.9084205414418220E-010
 prey           4          14           3   1.1001195201747151E-009
 prey           4          14           4   1.1001194793203645E-009
 prey           4          14           5   7.4196077086158218E-011
 prey           4          14           6   8.8080286451551364E-010
 pred           4          14           7   1.6603010437241901E-009
 pred           4          14           8   2.2575536956761758E-009
 mort           4           1   1.3150689026467285E-008   1.6534391534391535E-006  0.41202381614384564        1.9303584918088028E-002   0.0000000000000000        0.0000000000000000       0.41202381614384564        3.7262839068983558E-004
 mort           4           2   1.3150363865211820E-008   1.6534391534391535E-006  0.41202381614384564        1.9303107621583313E-002   0.0000000000000000        0.0000000000000000       0.41202381614384564        3.7260996385042778E-004
 mort           4           3   1.3126990470833235E-008   1.6534391534391535E-006  0.41202381614384564        1.9268798369626788E-002   0.0000000000000000        0.0000000000000000       0.41202381614384564        3.7128659060933197E-004
 mort           4           4   1.3126989983345596E-008   1.6534391534391535E-006  0.41202381614384564        1.9268797654055227E-002   0.0000000000000000        0.0000000000000000       0.41202381614384564        3.7128656303292423E-004
 mort           4           5   1.3129646068525410E-009   1.6534391534391535E-006  0.41202381614384564        1.9272696458575284E-003   0.0000000000000000        0.0000000000000000       0.41202381614384564        3.7143682878438030E-006
 mort           4           6   1.3151175687019431E-008   1.6534391534391535E-006  0.41202381614384564        1.9304299275584864E-002   0.0000000000000000        0.0000000000000000       0.41202381614384564        3.7265597052134634E-004
 mort           4           7   1.7074568109201705E-008   2.3148148148148148E-007  0.41202381614384564       0.12072543503757843        5.5602730976718456E-009   9.2592592592592583E-007  0.41202381614384564        1.4574630665012571E-002
 mort           4           8   1.7075779903079730E-008   2.3148148148148148E-007  0.41202381614384564       0.12073189818957704        5.5608684627186691E-009   9.2592592592592583E-007  0.41202381614384564        1.4576191240458395E-002
 graz           4           7           1   9.3615995280804712E-011   1.3721353000943018E-009  0.17200000000000001        1.2740064566301262E-002   3.2117886152771086E-002
 graz           4           7           2   9.7968053183023397E-011   1.3721353000943018E-009  0.18000000000000002        1.2739781802229946E-002   3.2117886152771086E-002
 graz           4           7           3   5.4306549782013774E-010   1.3721353000943018E-009   1.0000000000000000        1.2711658851198132E-002   3.2117886152771086E-002
 graz           4           7           4   5.4306549781040079E-010   1.3721353000943018E-009   1.0000000000000000        1.2711658850970219E-002   3.2117886152771086E-002
 graz           4           7           5   7.3327099342675039E-012   1.3721353000943018E-009  0.13500000000000001        1.2713957464901406E-003   3.2117886152771086E-002
 graz           4           7           6   8.7087546065667618E-011   1.3721353000943018E-009  0.16000000000000003        1.2740488718883478E-002   3.2117886152771086E-002
 graz           4           8           1   4.6759730987948033E-010   1.6455491413456860E-009  0.85999999999999999        1.2740064566301262E-002   3.8557505793447334E-002
 graz           4           8           2   4.8933516099576771E-010   1.6455491413456860E-009  0.90000000000000002        1.2739781802229946E-002   3.8557505793447334E-002
 graz           4           8           3   1.0850110180738523E-010   1.6455491413456860E-009  0.20000000000000001        1.2711658851198132E-002   3.8557505793447334E-002
 graz           4           8           4   1.0850110180543987E-010   1.6455491413456860E-009  0.20000000000000001        1.2711658850970219E-002   3.8557505793447334E-002
 graz           4           8           5   3.6625743593339405E-011   1.6455491413456860E-009  0.67500000000000004        1.2713957464901406E-003   3.8557505793447334E-002
 graz           4           8           6   4.3498872326427359E-010   1.6455491413456860E-009  0.80000000000000004        1.2740488718883478E-002   3.8557505793447334E-002
 prey           4          15           1   5.6121330516028507E-010
 prey           4          15           2   5.8730321417879109E-010
 prey           4          15           3   6.5156659962752296E-010
 prey           4          15           4   6.5156659961584068E-010
 prey           4          15           5   4.3958453527606906E-011
 prey           4          15           6   5.2207626932994116E-010
 pred           4          15           7   9.8330651828993601E-010
 pred           4          15           8   1.3381395334378316E-009
 mort           4           1   8.6129488347388190E-009   1.6534391534391535E-006  0.40887637799172982        1.2740064566301260E-002   0.0000000000000000        0.0000000000000000       0.40887637799172982        1.6230924515352492E-004
 mort           4           2   8.6127576714628508E-009   1.6534391534391535E-006  0.40887637799172982        1.2739781802229944E-002   0.0000000000000000        0.0000000000000000       0.40887637799172982        1.6230204036842924E-004
 mort           4           3   8.5937450882017282E-009   1.6534391534391535E-006  0.40887637799172982        1.2711658851198130E-002   0.0000000000000000        0.0000000000000000       0.40887637799172982        1.6158627074924377E-004
 mort           4           4   8.5937450880476460E-009   1.6534391534391535E-006  0.40887637799172982        1.2711658850970217E-002   0.0000000000000000        0.0000000000000000       0.40887637799172982        1.6158627074344946E-004
 mort           4           5   8.5952990710810135E-010   1.6534391534391535E-006  0.40887637799172982        1.2713957464901393E-003   0.0000000000000000        0.0000000000000000       0.40887637799172982        1.6164471441932184E-006
 mort           4           6   8.6132355840303748E-009   1.6534391534391535E-006  0.40887637799172982        1.2740488718883477E-002   0.0000000000000000        0.0000000000000000       0.40887637799172982        1.6232005279599713E-004
 mort           4           7   1.4798806683655264E-008   2.3148148148148148E-007  0.40887637799172982       0.10891098406190547        4.4906750432045881E-009   9.2592592592592583E-007  0.40887637799172982        1.1861602449332627E-002
 mort           4           8   1.4799486249969950E-008   2.3148148148148148E-007  0.40887637799172982       0.10891482095239852        4.4909914581564145E-009   9.2592592592592583E-007  0.40887637799172982        1.1862438223093026E-002
 graz           4           7           1   4.0136312835939001E-011   5.8720115400218772E-010  0.17200000000000001        6.1635918560536034E-003   1.5509998181954823E-002
 graz           4           7           2   4.2002292113668868E-011   5.8720115400218772E-010  0.18000000000000002        6.1634706520813333E-003   1.5509998181954823E-002
 graz           4           7           3   2.3229443287799585E-010   5.8720115400218772E-010   1.0000000000000000        6.1356933770646497E-003   1.5509998181954823E-002
 graz           4           7           4   2.3229443287799381E-010   5.8720115400218772E-010   1.0000000000000000        6.1356933770645950E-003   1.5509998181954823E-002
 graz           4           7           5   3.1364770209507331E-012   5.8720115400218772E-010  0.13500000000000001        6.1366759119529815E-004   1.5509998181954823E-002
 graz           4           7           6   3.7337206275639431E-011   5.8720115400218772E-010  0.16000000000000003        6.1637736649897039E-003   1.5509998181954823E-002
 graz           4           8           1   2.0058038660093823E-010   7.0562328100158215E-010  0.85999999999999999        6.1635918560536034E-003   1.8647334489953739E-002
 graz           4           8           2   2.0990557913783863E-010   7.0562328100158215E-010  0.90000000000000002        6.1634706520813333E-003   1.8647334489953739E-002
 graz           4           8           3   4.6435463409277614E-011   7.0562328100158215E-010  0.20000000000000001        6.1356933770646497E-003   1.8647334489953739E-002
 graz           4           8           4   4.6435463409277201E-011   7.0562328100158215E-010  0.20000000000000001        6.1356933770645950E-003   1.8647334489953739E-002
 graz           4           8           5   1.5674478520207566E-011   7.0562328100158215E-010  0.67500000000000004        6.1366759119529815E-004   1.8647334489953739E-002
 graz           4           8           6   1.8659190992404285E-010   7.0562328100158215E-010  0.80000000000000004        6.1637736649897039E-003   1.8647334489953739E-002
 prey           4          16           1   2.4071669943687721E-010
 prey           4          16           2   2.5190787125150750E-010
 prey           4          16           3   2.7872989628727344E-010
 prey           4          16           4   2.7872989628727101E-010
 prey           4          16           5   1.8810955541158300E-011
 prey           4          16           6   2.2392911619968228E-010
 pred           4          16           7   4.2071600790327094E-010
 pred           4          16           8   5.7378571748312111E-010
 mort           4           1   4.1316650836589123E-009   1.6534391534391535E-006  0.40541799342905399        6.1635918560536025E-003   0.0000000000000000        0.0000000000000000       0.40541799342905399        3.7989864568010294E-005
 mort           4           2   4.1315838365173232E-009   1.6534391534391535E-006  0.40541799342905399        6.1634706520813324E-003   0.0000000000000000        0.0000000000000000       0.40541799342905399        3.7988370479067884E-005
 mort           4           3   4.1129637850950493E-009   1.6534391534391535E-006  0.40541799342905399        6.1356933770646488E-003   0.0000000000000000        0.0000000000000000       0.40541799342905399        3.7646733217354994E-005
 mort           4           4   4.1129637850950129E-009   1.6534391534391535E-006  0.40541799342905399        6.1356933770645942E-003   0.0000000000000000        0.0000000000000000       0.40541799342905399        3.7646733217354323E-005
 mort           4           5   4.1136224116210037E-010   1.6534391534391535E-006  0.40541799342905399        6.1366759119529696E-004   0.0000000000000000        0.0000000000000000       0.40541799342905399        3.7658791248343813E-007
 mort           4           6   4.1317869563673470E-009   1.6534391534391535E-006  0.40541799342905399        6.1637736649897031E-003   0.0000000000000000        0.0000000000000000       0.40541799342905399        3.7992105793220597E-005
 mort           4           7   1.2646956226789627E-008   2.3148148148148148E-007  0.40541799342905399        9.7070811419240857E-002   3.5371753040769575E-009   9.2592592592592583E-007  0.40541799342905399        9.4227424295898216E-003
 mort           4           8   1.2647231007009456E-008   2.3148148148148148E-007  0.40541799342905399        9.7072459517556969E-002   3.5372954156133852E-009   9.2592592592592583E-007  0.40541799342905399        9.4230623967877375E-003
 graz           4           7           1   3.8815337736112626E-011   5.6985904467943155E-010  0.17200000000000001        6.0139944381303340E-003   1.5186424849512038E-002
 graz           4           7           2   4.0619909742533350E-011   5.6985904467943155E-010  0.18000000000000002        6.0138771007248633E-003   1.5186424849512038E-002
 graz           4           7           3   2.2563445052260415E-010   5.6985904467943155E-010   1.0000000000000000        6.0130319213412822E-003   1.5186424849512038E-002
 graz           4           7           4   2.2563445052260415E-010   5.6985904467943155E-010   1.0000000000000000        6.0130319213412822E-003   1.5186424849512038E-002
 graz           4           7           5   3.0465485018220544E-012   5.6985904467943155E-010  0.13500000000000001        6.0139862077440546E-004   1.5186424849512038E-002
 graz           4           7           6   3.6108347653755251E-011   5.6985904467943155E-010  0.16000000000000003        6.0141704471002215E-003   1.5186424849512038E-002
 graz           4           8           1   1.9398249714300035E-010   6.8287291769105128E-010  0.85999999999999999        6.0139944381303340E-003   1.8207017802683877E-002
 graz           4           8           2   2.0300097809657872E-010   6.8287291769105128E-010  0.90000000000000002        6.0138771007248633E-003   1.8207017802683877E-002
 graz           4           8           3   4.5104988601598089E-011   6.8287291769105128E-010  0.20000000000000001        6.0130319213412822E-003   1.8207017802683877E-002
 graz           4           8           4   4.5104988601598089E-011   6.8287291769105128E-010  0.20000000000000001        6.0130319213412822E-003   1.8207017802683877E-002
 graz           4           8           5   1.5225349578779556E-011   6.8287291769105128E-010  0.67500000000000004        6.0139862077440546E-004   1.8207017802683877E-002
 graz           4           8           6   1.8045411566949648E-010   6.8287291769105128E-010  0.80000000000000004        6.0141704471002215E-003   1.8207017802683877E-002
 prey           4          17           1   2.3279783487911297E-010
 prey           4          17           2   2.4362088783911206E-010
 prey           4          17           3   2.7073943912420223E-010
 prey           4          17           4   2.7073943912420223E-010
 prey           4          17           5   1.8271898080601612E-011
 prey           4          17           6   2.1656246332325172E-010
 pred           4          17           7   4.0845117828985599E-010
 pred           4          17           8   5.5531933187316065E-010
 mort           4           1   4.0031784148939462E-009   1.6534391534391535E-006  0.40258140080364813        6.0139944381303332E-003   0.0000000000000000        0.0000000000000000       0.40258140080364813        3.6168129101862579E-005
 mort           4           2   4.0031003099715565E-009   1.6534391534391535E-006  0.40258140080364813        6.0138771007248624E-003   0.0000000000000000        0.0000000000000000       0.40258140080364813        3.6166717782622875E-005
 mort           4           3   4.0025377215122771E-009   1.6534391534391535E-006  0.40258140080364813        6.0130319213412813E-003   0.0000000000000000        0.0000000000000000       0.40258140080364813        3.6156552887069221E-005
 mort           4           4   4.0025377215122771E-009   1.6534391534391535E-006  0.40258140080364813        6.0130319213412813E-003   0.0000000000000000        0.0000000000000000       0.40258140080364813        3.6156552887069221E-005
 mort           4           5   4.0031729363879243E-010   1.6534391534391535E-006  0.40258140080364813        6.0139862077440427E-004   0.0000000000000000        0.0000000000000000       0.40258140080364813        3.6168030106935572E-007
 mort           4           6   4.0032955741823905E-009   1.6534391534391535E-006  0.40258140080364813        6.0141704471002207E-003   0.0000000000000000        0.0000000000000000       0.40258140080364813        3.6170246166773666E-005
 mort           4           7   1.2527528265950849E-008   2.3148148148148148E-007  0.40258140080364813        9.6883844910855443E-002   3.4989092845953911E-009   9.2592592592592583E-007  0.40258140080364813        9.3864794047106900E-003
 mort           4           8   1.2527791978849536E-008   2.3148148148148148E-007  0.40258140080364813        9.6885439115912686E-002   3.4990244333030780E-009   9.2592592592592583E-007  0.40258140080364813        9.3867883126832231E-003
 graz           4           7           1   3.7715602001903589E-011   5.5371705465583748E-010  0.17200000000000001        5.8953805481873969E-003   1.4886998582843664E-002
 graz           4           7           2   3.9469052736632210E-011   5.5371705465583748E-010  0.18000000000000002        5.8952665366613678E-003   1.4886998582843664E-002
 graz           4           7           3   2.1924342470106555E-010   5.5371705465583748E-010   1.0000000000000000        5.8944844219241451E-003   1.4886998582843664E-002
 graz           4           7           4   2.1924342470106555E-010   5.5371705465583748E-010   1.0000000000000000        5.8944844219241451E-003   1.4886998582843664E-002
 graz           4           7           5   2.9602518176031133E-012   5.5371705465583748E-010  0.13500000000000001        5.8954116437693574E-004   1.4886998582843664E-002
 graz           4           7           6   3.5085298697567445E-011   5.5371705465583748E-010  0.16000000000000003        5.8955515682325519E-003   1.4886998582843664E-002
 graz           4           8           1   1.8848826895408997E-010   6.6353248203091438E-010  0.85999999999999999        5.8953805481873969E-003   1.7847942463746526E-002
 graz           4           8           2   1.9725135044139041E-010   6.6353248203091438E-010  0.90000000000000002        5.8952665366613678E-003   1.7847942463746526E-002
 graz           4           8           3   4.3827818099665447E-011   6.6353248203091438E-010  0.20000000000000001        5.8944844219241451E-003   1.7847942463746526E-002
 graz           4           8           4   4.3827818099665447E-011   6.6353248203091438E-010  0.20000000000000001        5.8944844219241451E-003   1.7847942463746526E-002
 graz           4           8           5   1.4794215421513015E-011   6.6353248203091438E-010  0.67500000000000004        5.8954116437693574E-004   1.7847942463746526E-002
 graz           4           8           6   1.7534301101459002E-010   6.6353248203091438E-010  0.80000000000000004        5.8955515682325519E-003   1.7847942463746526E-002
 prey           4          18           1   2.2620387095599355E-010
 prey           4          18           2   2.3672040317802260E-010
 prey           4          18           3   2.6307124280073098E-010
 prey           4          18           4   2.6307124280073098E-010
 prey           4          18           5   1.7754467239116128E-011
 prey           4          18           6   2.1042830971215747E-010
 pred           4          18           7   3.9688156162318742E-010
 pred           4          18           8   5.3959154924466454E-010
 mort           4           1   3.8967855750431705E-009   1.6534391534391535E-006  0.39976654543712670        5.8953805481873961E-003   0.0000000000000000        0.0000000000000000       0.39976654543712670        3.4755511807946320E-005
 mort           4           2   3.8967102146035200E-009   1.6534391534391535E-006  0.39976654543712670        5.8952665366613670E-003   0.0000000000000000        0.0000000000000000       0.39976654543712670        3.4754167538279311E-005
 mort           4           3   3.8961932448504857E-009   1.6534391534391535E-006  0.39976654543712670        5.8944844219241442E-003   0.0000000000000000        0.0000000000000000       0.39976654543712670        3.4744946600306411E-005
 mort           4           4   3.8961932448504857E-009   1.6534391534391535E-006  0.39976654543712670        5.8944844219241442E-003   0.0000000000000000        0.0000000000000000       0.39976654543712670        3.4744946600306411E-005
 mort           4           5   3.8968061289012627E-010   1.6534391534391535E-006  0.39976654543712670        5.8954116437693455E-004   0.0000000000000000        0.0000000000000000       0.39976654543712670        3.4755878449491178E-007
 mort           4           6   3.8968986175244078E-009   1.6534391534391535E-006  0.39976654543712670        5.8955515682325510E-003   0.0000000000000000        0.0000000000000000       0.39976654543712670        3.4757528293689291E-005
 mort           4           7   1.2410457968461809E-008   2.3148148148148148E-007  0.39976654543712670        9.6704317870090956E-002   3.4615804027719795E-009   9.2592592592592583E-007  0.39976654543712670        9.3517250947195932E-003
 mort           4           8   1.2410712212862088E-008   2.3148148148148148E-007  0.39976654543712670        9.6705866911545743E-002   3.4616913011187596E-009   9.2592592592592583E-007  0.39976654543712670        9.3520246951135973E-003
 graz           4           7           1   3.6643686556586283E-011   5.3797934224746802E-010  0.17200000000000001        5.7767304333398639E-003   1.4587369670353503E-002
 graz           4           7           2   3.8347308744834407E-011   5.3797934224746802E-010  0.18000000000000002        5.7766196641923584E-003   1.4587369670353503E-002
 graz           4           7           3   2.1301205249853653E-010   5.3797934224746802E-010   1.0000000000000000        5.7758454833151621E-003   1.4587369670353503E-002
 graz           4           7           4   2.1301205249853653E-010   5.3797934224746802E-010   1.0000000000000000        5.7758454833151621E-003   1.4587369670353503E-002
 graz           4           7           5   2.8761112134288817E-012   5.3797934224746802E-010  0.13500000000000001        5.7767463170012583E-004   1.4587369670353503E-002
 graz           4           7           6   3.4088130735545365E-011   5.3797934224746802E-010  0.16000000000000003        5.7768965897161241E-003   1.4587369670353503E-002
 graz           4           8           1   1.8313297348405955E-010   6.4468016620702423E-010  0.85999999999999999        5.7767304333398639E-003   1.7488731711941957E-002
 graz           4           8           2   1.9164711128909497E-010   6.4468016620702423E-010  0.90000000000000002        5.7766196641923584E-003   1.7488731711941957E-002
 graz           4           8           3   4.2582539288736584E-011   6.4468016620702423E-010  0.20000000000000001        5.7758454833151621E-003   1.7488731711941957E-002
 graz           4           8           4   4.2582539288736584E-011   6.4468016620702423E-010  0.20000000000000001        5.7758454833151621E-003   1.7488731711941957E-002
 graz           4           8           5   1.4373848487452678E-011   6.4468016620702423E-010  0.67500000000000004        5.7767463170012583E-004   1.7488731711941957E-002
 graz           4           8           6   1.7036115436894378E-010   6.4468016620702423E-010  0.80000000000000004        5.7768965897161241E-003   1.7488731711941957E-002
 prey           4          19           1   2.1977666004064585E-010
 prey           4          19           2   2.2999442003392939E-010
 prey           4          19           3   2.5559459178727309E-010
 prey           4          19           4   2.5559459178727309E-010
 prey           4          19           5   1.7249959700881559E-011
 prey           4          19           6   2.0444928510448914E-010
 pred           4          19           7   3.8560137889781641E-010
 pred           4          19           8   5.2426064082336676E-010
 mort           4           1   3.7929178027310467E-009   1.6534391534391535E-006  0.39710294838277010        5.7767304333398630E-003   0.0000000000000000        0.0000000000000000       0.39710294838277010        3.3370614499474960E-005
 mort           4           2   3.7928450733079899E-009   1.6534391534391535E-006  0.39710294838277010        5.7766196641923576E-003   0.0000000000000000        0.0000000000000000       0.39710294838277010        3.3369334744733823E-005
 mort           4           3   3.7923367573210265E-009   1.6534391534391535E-006  0.39710294838277010        5.7758454833151613E-003   0.0000000000000000        0.0000000000000000       0.39710294838277010        3.3360391047132148E-005
 mort           4           4   3.7923367573210265E-009   1.6534391534391535E-006  0.39710294838277010        5.7758454833151613E-003   0.0000000000000000        0.0000000000000000       0.39710294838277010        3.3360391047132148E-005
 mort           4           5   3.7929282317137954E-010   1.6534391534391535E-006  0.39710294838277010        5.7767463170012464E-004   0.0000000000000000        0.0000000000000000       0.39710294838277010        3.3370798010987465E-007
 mort           4           6   3.7930268986088666E-009   1.6534391534391535E-006  0.39710294838277010        5.7768965897161233E-003   0.0000000000000000        0.0000000000000000       0.39710294838277010        3.3372534208273773E-005
 mort           4           7   1.2298386578626968E-008   2.3148148148148148E-007  0.39710294838277010        9.6524026809950675E-002   3.4257070332545230E-009   9.2592592592592583E-007  0.39710294838277010        9.3168877516080773E-003
 mort           4           8   1.2298631751272196E-008   2.3148148148148148E-007  0.39710294838277010        9.6525531823287311E-002   3.4258138620957398E-009   9.2592592592592583E-007  0.39710294838277010        9.3171782937684511E-003
 graz           4           7           1   3.4278193640685144E-011   5.0322800356997722E-010  0.17200000000000001        5.5234894717195613E-003   1.3947258502052107E-002
 graz           4           7           2   3.5871855276287481E-011   5.0322800356997722E-010  0.18000000000000002        5.5233858535658036E-003   1.3947258502052107E-002
 graz           4           7           3   1.9925003982540177E-010   5.0322800356997722E-010   1.0000000000000000        5.5223314129469320E-003   1.3947258502052107E-002
 graz           4           7           4   1.9925003982540177E-010   5.0322800356997722E-010   1.0000000000000000        5.5223314129469320E-003   1.3947258502052107E-002
 graz           4           7           5   2.6902859596152972E-012   5.0322800356997722E-010  0.13500000000000001        5.5231740118400331E-004   1.3947258502052107E-002
 graz           4           7           6   3.1887589042585756E-011   5.0322800356997722E-010  0.16000000000000003        5.5236449013799649E-003   1.3947258502052107E-002
 graz           4           8           1   1.7131449356497331E-010   6.0307042542135133E-010  0.85999999999999999        5.5234894717195613E-003   1.6721910945969993E-002
 graz           4           8           2   1.7927924628441340E-010   6.0307042542135133E-010  0.90000000000000002        5.5233858535658036E-003   1.6721910945969993E-002
 graz           4           8           3   3.9832226894214139E-011   6.0307042542135133E-010  0.20000000000000001        5.5223314129469320E-003   1.6721910945969993E-002
 graz           4           8           4   3.9832226894214139E-011   6.0307042542135133E-010  0.20000000000000001        5.5223314129469320E-003   1.6721910945969993E-002
 graz           4           8           5   1.3445427771007854E-011   6.0307042542135133E-010  0.67500000000000004        5.5231740118400331E-004   1.6721910945969993E-002
 graz           4           8           6   1.5936680401252851E-010   6.0307042542135133E-010  0.80000000000000004        5.5236449013799649E-003   1.6721910945969993E-002
 prey           4          20           1   2.0559268720565844E-010
 prey           4          20           2   2.1515110156070087E-010
 prey           4          20           3   2.3908226671961593E-010
 prey           4          20           4   2.3908226671961593E-010
 prey           4          20           5   1.6135713730623150E-011
 prey           4          20           6   1.9125439305511425E-010
 pred           4          20           7   3.6069123328831231E-010
 pred           4          20           8   4.9042278571592394E-010
 mort           4           1   3.6047813540402864E-009   1.6534391534391535E-006  0.39470913705658583        5.5234894717195605E-003   0.0000000000000000        0.0000000000000000       0.39470913705658583        3.0508935944196829E-005
 mort           4           2   3.6047137299793518E-009   1.6534391534391535E-006  0.39470913705658583        5.5233858535658027E-003   0.0000000000000000        0.0000000000000000       0.39470913705658583        3.0507791287370830E-005
 mort           4           3   3.6040255729906739E-009   1.6534391534391535E-006  0.39470913705658583        5.5223314129469311E-003   0.0000000000000000        0.0000000000000000       0.39470913705658583        3.0496144234420449E-005
 mort           4           4   3.6040255729906739E-009   1.6534391534391535E-006  0.39470913705658583        5.5223314129469311E-003   0.0000000000000000        0.0000000000000000       0.39470913705658583        3.0496144234420449E-005
 mort           4           5   3.6045754762346828E-010   1.6534391534391535E-006  0.39470913705658583        5.5231740118400212E-004   0.0000000000000000        0.0000000000000000       0.39470913705658583        3.0505451165064995E-007
 mort           4           6   3.6048827917174200E-009   1.6534391534391535E-006  0.39470913705658583        5.5236449013799640E-003   0.0000000000000000        0.0000000000000000       0.39470913705658583        3.0510652996540874E-005
 mort           4           7   1.1977583399039418E-008   2.3148148148148148E-007  0.39470913705658583        9.4995382650119531E-002   3.2980589753845924E-009   9.2592592592592583E-007  0.39470913705658583        9.0241227248426311E-003
 mort           4           8   1.1977809800681377E-008   2.3148148148148148E-007  0.39470913705658583        9.4996790580553006E-002   3.2981567374417285E-009   9.2592592592592583E-007  0.39470913705658583        9.0243902206054438E-003
 graz           4           7           1   2.4295306623734440E-011   3.5649973408106884E-010  0.17200000000000001        4.4490374156208471E-003   1.1228747880638310E-002
 graz           4           7           2   2.5424901197505291E-011   3.5649973408106884E-010  0.18000000000000002        4.4489639767554944E-003   1.1228747880638310E-002
 graz           4           7           3   1.4113654118087491E-010   3.5649973408106884E-010   1.0000000000000000        4.4454076291259911E-003   1.1228747880638310E-002
 graz           4           7           4   1.4113654118087491E-010   3.5649973408106884E-010   1.0000000000000000        4.4454076291259911E-003   1.1228747880638310E-002
 graz           4           7           5   1.9055990752713033E-012   3.5649973408106884E-010  0.13500000000000001        4.4460043714165135E-004   1.1228747880638310E-002
 graz           4           7           6   2.2600844822808020E-011   3.5649973408106884E-010  0.16000000000000003        4.4491475754339354E-003   1.1228747880638310E-002
 graz           4           8           1   1.2143276265961129E-010   4.2743380648384351E-010  0.85999999999999999        4.4490374156208471E-003   1.3467826163582030E-002
 graz           4           8           2   1.2707870044927052E-010   4.2743380648384351E-010  0.90000000000000002        4.4489639767554944E-003   1.3467826163582030E-002
 graz           4           8           3   2.8217137364420321E-011   4.2743380648384351E-010  0.20000000000000001        4.4454076291259911E-003   1.3467826163582030E-002
 graz           4           8           4   2.8217137364420321E-011   4.2743380648384351E-010  0.20000000000000001        4.4454076291259911E-003   1.3467826163582030E-002
 graz           4           8           5   9.5245622463449296E-012   4.2743380648384351E-010  0.67500000000000004        4.4460043714165135E-004   1.3467826163582030E-002
 graz           4           8           6   1.1296350639977622E-010   4.2743380648384351E-010  0.80000000000000004        4.4491475754339354E-003   1.3467826163582030E-002
 prey           4          21           1   1.4572806928334572E-010
 prey           4          21           2   1.5250360164677582E-010
 prey           4          21           3   1.6935367854529522E-010
 prey           4          21           4   1.6935367854529522E-010
 prey           4          21           5   1.1430161321616233E-011
 prey           4          21           6   1.3556435122258425E-010
 pred           4          21           7   2.5550912657712748E-010
 pred           4          21           8   3.4759047265995897E-010
 mort           4           1   2.8802883840654430E-009   1.6534391534391535E-006  0.39154501343740455        4.4490374156208462E-003   0.0000000000000000        0.0000000000000000       0.39154501343740455        1.9793933925594217E-005
 mort           4           2   2.8802408400483772E-009   1.6534391534391535E-006  0.39154501343740455        4.4489639767554936E-003   0.0000000000000000        0.0000000000000000       0.39154501343740455        1.9793280466468055E-005
 mort           4           3   2.8779384753321374E-009   1.6534391534391535E-006  0.39154501343740455        4.4454076291259902E-003   0.0000000000000000        0.0000000000000000       0.39154501343740455        1.9761648989091559E-005
 mort           4           4   2.8779384753321374E-009   1.6534391534391535E-006  0.39154501343740455        4.4454076291259902E-003   0.0000000000000000        0.0000000000000000       0.39154501343740455        1.9761648989091559E-005
 mort           4           5   2.8783248038178466E-010   1.6534391534391535E-006  0.39154501343740455        4.4460043714165015E-004   0.0000000000000000        0.0000000000000000       0.39154501343740455        1.9766954870654642E-007
 mort           4           6   2.8803597010718847E-009   1.6534391534391535E-006  0.39154501343740455        4.4491475754339345E-003   0.0000000000000000        0.0000000000000000       0.39154501343740455        1.9794914147989657E-005
 mort           4           7   1.0205956008091709E-008   2.3148148148148148E-007  0.39154501343740455        8.4227447228961971E-002   2.5719659717347195E-009   9.2592592592592583E-007  0.39154501343740455        7.0942628667075734E-003
 mort           4           8   1.0206107432646317E-008   2.3148148148148148E-007  0.39154501343740455        8.4228445362561508E-002   2.5720269300315392E-009   9.2592592592592583E-007  0.39154501343740455        7.0944310081940088E-003
 graz           4           7           1   1.5928947958012994E-011   2.3369112272142899E-010  0.17200000000000001        3.3715072273165533E-003   8.5076117733696010E-003
 graz           4           7           2   1.6669591198213421E-011   2.3369112272142899E-010  0.18000000000000002        3.3714590791574508E-003   8.5076117733696010E-003
 graz           4           7           3   9.2512786250707850E-011   2.3369112272142899E-010   1.0000000000000000        3.3679622072420958E-003   8.5076117733696010E-003
 graz           4           7           4   9.2512786250707850E-011   2.3369112272142899E-010   1.0000000000000000        3.3679622072420958E-003   8.5076117733696010E-003
 graz           4           7           5   1.2490676389931558E-012   2.3369112272142899E-010  0.13500000000000001        3.3683532942440118E-004   8.5076117733696010E-003
 graz           4           7           6   1.4817943424793717E-011   2.3369112272142899E-010  0.16000000000000003        3.3715794504145425E-003   8.5076117733696010E-003
 graz           4           8           1   7.9622966695915397E-011   2.8025622885205930E-010  0.85999999999999999        3.3715072273165533E-003   1.0205621677323884E-002
 graz           4           8           2   8.3325170520265756E-011   2.8025622885205930E-010  0.90000000000000002        3.3714590791574508E-003   1.0205621677323884E-002
 graz           4           8           3   1.8497499063975394E-011   2.8025622885205930E-010  0.20000000000000001        3.3679622072420958E-003   1.0205621677323884E-002
 graz           4           8           4   1.8497499063975394E-011   2.8025622885205930E-010  0.20000000000000001        3.3679622072420958E-003   1.0205621677323884E-002
 graz           4           8           5   6.2436308589022395E-012   2.8025622885205930E-010  0.67500000000000004        3.3683532942440118E-004   1.0205621677323884E-002
 graz           4           8           6   7.4069462649025136E-011   2.8025622885205930E-010  0.80000000000000004        3.3715794504145425E-003   1.0205621677323884E-002
 prey           4          22           1   9.5551914653928385E-011
 prey           4          22           2   9.9994761718479177E-011
 prey           4          22           3   1.1101028531468325E-010
 prey           4          22           4   1.1101028531468325E-010
 prey           4          22           5   7.4926984978953958E-012
 prey           4          22           6   8.8887406073818856E-011
 pred           4          22           7   1.6748667808913790E-010
 pred           4          22           8   2.2790448289444254E-010
 mort           4           1   2.1643861124707282E-009   1.6534391534391535E-006  0.38825979971698632        3.3715072273165520E-003   0.0000000000000000        0.0000000000000000       0.38825979971698632        1.1367060983847744E-005
 mort           4           2   2.1643552030881062E-009   1.6534391534391535E-006  0.38825979971698632        3.3714590791574495E-003   0.0000000000000000        0.0000000000000000       0.38825979971698632        1.1366736322433197E-005
 mort           4           3   2.1621103373647402E-009   1.6534391534391535E-006  0.38825979971698632        3.3679622072420945E-003   0.0000000000000000        0.0000000000000000       0.38825979971698632        1.1343169429411041E-005
 mort           4           4   2.1621103373647402E-009   1.6534391534391535E-006  0.38825979971698632        3.3679622072420945E-003   0.0000000000000000        0.0000000000000000       0.38825979971698632        1.1343169429411041E-005
 mort           4           5   2.1623614011230597E-010   1.6534391534391535E-006  0.38825979971698632        3.3683532942439999E-004   0.0000000000000000        0.0000000000000000       0.38825979971698632        1.1345803914844406E-007
 mort           4           6   2.1644324770963235E-009   1.6534391534391535E-006  0.38825979971698632        3.3715794504145412E-003   0.0000000000000000        0.0000000000000000       0.38825979971698632        1.1367547990457619E-005
 mort           4           7   8.5415369271544842E-009   2.3148148148148148E-007  0.38825979971698632        7.3455292228048738E-002   1.9397459436788111E-009   9.2592592592592583E-007  0.38825979971698632        5.3956799563080375E-003
 mort           4           8   8.5416303294117956E-009   2.3148148148148148E-007  0.38825979971698632        7.3455946811926992E-002   1.9397805152404126E-009   9.2592592592592583E-007  0.38825979971698632        5.3957761220366470E-003
 graz           4           7           1   9.1712979069925005E-012   1.3450098191469556E-010  0.17200000000000001        2.2938439872193200E-003   5.7861138896863279E-003
 graz           4           7           2   9.5977539173638913E-012   1.3450098191469556E-010  0.18000000000000002        2.2938162672989774E-003   5.7861138896863279E-003
 graz           4           7           3   5.3240757343225237E-011   1.3450098191469556E-010   1.0000000000000000        2.2903705324354706E-003   5.7861138896863279E-003
 graz           4           7           4   5.3240757343225237E-011   1.3450098191469556E-010   1.0000000000000000        2.2903705324354706E-003   5.7861138896863279E-003
 graz           4           7           5   7.1882084178009345E-013   1.3450098191469556E-010  0.13500000000000001        2.2905955627329280E-004   5.7861138896863279E-003
 graz           4           7           6   8.5315945621086073E-012   1.3450098191469556E-010  0.16000000000000003        2.2938855675184553E-003   5.7861138896863279E-003
 graz           4           8           1   4.5847949446667734E-011   1.6136358191666296E-010  0.85999999999999999        2.2938439872193200E-003   6.9430123370511207E-003
 graz           4           8           2   4.7979832393118296E-011   1.6136358191666296E-010  0.90000000000000002        2.2938162672989774E-003   6.9430123370511207E-003
 graz           4           8           3   1.0646168409003098E-011   1.6136358191666296E-010  0.20000000000000001        2.2903705324354706E-003   6.9430123370511207E-003
 graz           4           8           4   1.0646168409003098E-011   1.6136358191666296E-010  0.20000000000000001        2.2903705324354706E-003   6.9430123370511207E-003
 graz           4           8           5   3.5934348605138840E-012   1.6136358191666296E-010  0.67500000000000004        2.2905955627329280E-004   6.9430123370511207E-003
 graz           4           8           6   4.2650028398356838E-011   1.6136358191666296E-010  0.80000000000000004        2.2938855675184553E-003   6.9430123370511207E-003
 prey           4          23           1   5.5019247353660237E-011
 prey           4          23           2   5.7577586310482190E-011
 prey           4          23           3   6.3886925752228330E-011
 prey           4          23           4   6.3886925752228330E-011
 prey           4          23           5   4.3122557022939778E-012
 prey           4          23           6   5.1181622960465443E-011
 pred           4          23           7   9.6392998640458420E-011
 pred           4          23           8   1.3122009921513099E-010
 mort           4           1   1.4596827648837702E-009   1.6534391534391535E-006  0.38486319955520870        2.2938439872193187E-003   0.0000000000000000        0.0000000000000000       0.38486319955520870        5.2617202377022221E-006
 mort           4           2   1.4596651253711469E-009   1.6534391534391535E-006  0.38486319955520870        2.2938162672989761E-003   0.0000000000000000        0.0000000000000000       0.38486319955520870        5.2615930681254079E-006
 mort           4           3   1.4574724392858495E-009   1.6534391534391535E-006  0.38486319955520870        2.2903705324354693E-003   0.0000000000000000        0.0000000000000000       0.38486319955520870        5.2457971758487349E-006
 mort           4           4   1.4574724392858495E-009   1.6534391534391535E-006  0.38486319955520870        2.2903705324354693E-003   0.0000000000000000        0.0000000000000000       0.38486319955520870        5.2457971758487349E-006
 mort           4           5   1.4576156368392094E-010   1.6534391534391535E-006  0.38486319955520870        2.2905955627329161E-004   0.0000000000000000        0.0000000000000000       0.38486319955520870        5.2468280320117243E-008
 mort           4           6   1.4597092244190939E-009   1.6534391534391535E-006  0.38486319955520870        2.2938855675184540E-003   0.0000000000000000        0.0000000000000000       0.38486319955520870        5.2619109968694599E-006
 mort           4           7   6.9844602992345794E-009   2.3148148148148148E-007  0.38486319955520870        6.2682540586467522E-002   1.4001540199852469E-009   9.2592592592592583E-007  0.38486319955520870        3.9291008943741481E-003
 mort           4           8   6.9845107250632530E-009   2.3148148148148148E-007  0.38486319955520870        6.2682917564555921E-002   1.4001708613247387E-009   9.2592592592592583E-007  0.38486319955520870        3.9291481544049128E-003
 graz           4           7           1   2.5473139190260453E-012   3.7341843102946403E-011  0.17200000000000001        8.8142264832295899E-004   2.2224189610783266E-003
 graz           4           7           2   2.6657703511762485E-012   3.7341843102946403E-011  0.18000000000000002        8.8141494932546336E-004   2.2224189610783266E-003
 graz           4           7           3   1.4779796014873471E-011   3.7341843102946403E-011   1.0000000000000000        8.7962714678464695E-004   2.2224189610783266E-003
 graz           4           7           4   1.4779796014873471E-011   3.7341843102946403E-011   1.0000000000000000        8.7962714678464695E-004   2.2224189610783266E-003
 graz           4           7           5   1.9954141280615776E-013   3.7341843102946403E-011  0.13500000000000001        8.7968960106542767E-005   2.2224189610783266E-003
 graz           4           7           6   2.3696253901910161E-012   3.7341843102946403E-011  0.16000000000000003        8.8143419690323401E-004   2.2224189610783266E-003
 graz           4           8           1   1.2735665521576670E-011   4.4819992111006464E-011  0.85999999999999999        8.8142264832295899E-004   2.6676741962590239E-003
 graz           4           8           2   1.3327905640659105E-011   4.4819992111006464E-011  0.90000000000000002        8.8141494932546336E-004   2.6676741962590239E-003
 graz           4           8           3   2.9557493816000429E-012   4.4819992111006464E-011  0.20000000000000001        8.7962714678464695E-004   2.6676741962590239E-003
 graz           4           8           4   2.9557493816000429E-012   4.4819992111006464E-011  0.20000000000000001        8.7962714678464695E-004   2.6676741962590239E-003
 graz           4           8           5   9.9763624428893869E-013   4.4819992111006464E-011  0.67500000000000004        8.7968960106542767E-005   2.6676741962590239E-003
 graz           4           8           6   1.1847285941281672E-011   4.4819992111006464E-011  0.80000000000000004        8.8143419690323401E-004   2.6676741962590239E-003
 prey           4          24           1   1.5282979440602715E-011
 prey           4          24           2   1.5993675991835353E-011
 prey           4          24           3   1.7735545396473515E-011
 prey           4          24           4   1.7735545396473515E-011
 prey           4          24           5   1.1971776570950965E-012
 prey           4          24           6   1.4216911331472689E-011
 pred           4          24           7   2.6760574053077345E-011
 pred           4          24           8   3.6447143565125193E-011
 mort           4           1   5.5596056255981507E-010   1.6534391534391535E-006  0.38147981433871014        8.8142264832295780E-004   0.0000000000000000        0.0000000000000000       0.38147981433871014        7.7690588497665650E-007
 mort           4           2   5.5595570638895651E-010   1.6534391534391535E-006  0.38147981433871014        8.8141494932546217E-004   0.0000000000000000        0.0000000000000000       0.38147981433871014        7.7689231289440706E-007
 mort           4           3   5.5482804339070111E-010   1.6534391534391535E-006  0.38147981433871014        8.7962714678464576E-004   0.0000000000000000        0.0000000000000000       0.38147981433871014        7.7374391736049676E-007
 mort           4           4   5.5482804339070111E-010   1.6534391534391535E-006  0.38147981433871014        8.7962714678464576E-004   0.0000000000000000        0.0000000000000000       0.38147981433871014        7.7374391736049676E-007
 mort           4           5   5.5486743665695894E-011   1.6534391534391535E-006  0.38147981433871014        8.7968960106541561E-005   0.0000000000000000        0.0000000000000000       0.38147981433871014        7.7385379422263003E-009
 mort           4           6   5.5596784686910611E-010   1.6534391534391535E-006  0.38147981433871014        8.8143419690323282E-004   0.0000000000000000        0.0000000000000000       0.38147981433871014        7.7692624347044701E-007
 mort           4           7   4.7712356004735708E-009   2.3148148148148148E-007  0.38147981433871014        4.5683189784396630E-002   7.3715811034586543E-010   9.2592592592592583E-007  0.38147981433871014        2.0869538288772007E-003
 mort           4           8   4.7712482297624009E-009   2.3148148148148148E-007  0.38147981433871014        4.5683294523827356E-002   7.3716149056557884E-010   9.2592592592592583E-007  0.38147981433871014        2.0869633985507543E-003
 graz           4           7           1   9.7988118172862570E-013   1.4379445345062607E-011  0.17200000000000001        5.6366163739919475E-004   1.4227075688219555E-003
 graz           4           7           2   1.0254516608725260E-012   1.4379445345062607E-011  0.18000000000000002        5.6365867480932059E-004   1.4227075688219555E-003
 graz           4           7           3   5.6928654859506402E-012   1.4379445345062607E-011   1.0000000000000000        5.6325418823809244E-004   1.4227075688219555E-003
 graz           4           7           4   5.6928654859506402E-012   1.4379445345062607E-011   1.0000000000000000        5.6325418823809244E-004   1.4227075688219555E-003
 graz           4           7           5   7.6856965811548972E-014   1.4379445345062607E-011  0.13500000000000001        5.6327823991680360E-005   1.4227075688219555E-003
 graz           4           7           6   9.1152456474862339E-013   1.4379445345062607E-011  0.16000000000000003        5.6366608130346428E-004   1.4227075688219555E-003
 graz           4           8           1   4.8991883154166745E-012   1.7244952140500859E-011  0.85999999999999999        5.6366163739919475E-004   1.7062976370240887E-003
 graz           4           8           2   5.1270305917178510E-012   1.7244952140500859E-011  0.90000000000000002        5.6365867480932059E-004   1.7062976370240887E-003
 graz           4           8           3   1.1385225306932123E-012   1.7244952140500859E-011  0.20000000000000001        5.6325418823809244E-004   1.7062976370240887E-003
 graz           4           8           4   1.1385225306932123E-012   1.7244952140500859E-011  0.20000000000000001        5.6325418823809244E-004   1.7062976370240887E-003
 graz           4           8           5   3.8426776213628727E-013   1.7244952140500859E-011  0.67500000000000004        5.6327823991680360E-005   1.7062976370240887E-003
 graz           4           8           6   4.5574204098436218E-012   1.7244952140500859E-011  0.80000000000000004        5.6366608130346428E-004   1.7062976370240887E-003
 prey           4          25           1   5.8790694971453004E-012
 prey           4          25           2   6.1524822525903768E-012
 prey           4          25           3   6.8313880166438527E-012
 prey           4          25           4   6.8313880166438527E-012
 prey           4          25           5   4.6112472794783629E-013
 prey           4          25           6   5.4689449745922452E-012
 pred           4          25           7   1.0306070526785555E-011
 pred           4          25           8   1.4023666218539331E-011
 mort           4           1   3.4856848308342080E-010   1.6534391534391535E-006  0.37400845574940400        5.6366163739919356E-004   0.0000000000000000        0.0000000000000000       0.37400845574940400        3.1771444147553999E-007
 mort           4           2   3.4856665101717762E-010   1.6534391534391535E-006  0.37400845574940400        5.6365867480931940E-004   0.0000000000000000        0.0000000000000000       0.37400845574940400        3.1771110168779809E-007
 mort           4           3   3.4831651643074176E-010   1.6534391534391535E-006  0.37400845574940400        5.6325418823809125E-004   0.0000000000000000        0.0000000000000000       0.37400845574940400        3.1725528056775115E-007
 mort           4           4   3.4831651643074176E-010   1.6534391534391535E-006  0.37400845574940400        5.6325418823809125E-004   0.0000000000000000        0.0000000000000000       0.37400845574940400        3.1725528056775115E-007
 mort           4           5   3.4833138999424858E-011   1.6534391534391535E-006  0.37400845574940400        5.6327823991679160E-005   0.0000000000000000        0.0000000000000000       0.37400845574940400        3.1728237556375864E-009
 mort           4           6   3.4857123119481852E-010   1.6534391534391535E-006  0.37400845574940400        5.6366608130346309E-004   0.0000000000000000        0.0000000000000000       0.37400845574940400        3.1771945121200227E-007
 mort           4           7   2.6982880600414064E-009   2.3148148148148148E-007  0.37400845574940400        2.8025068901655348E-002   2.7198881416669298E-010   9.2592592592592583E-007  0.37400845574940400        7.8540448694252966E-004
 mort           4           8   2.6982923303429479E-009   2.3148148148148148E-007  0.37400845574940400        2.8025109192673404E-002   2.7198959623178899E-010   9.2592592592592583E-007  0.37400845574940400        7.8540674526126741E-004
 graz           4           7           1   4.2377658939678479E-014   6.2133334178043969E-013  0.17200000000000001        1.4439660914990828E-004   3.6414398414986738E-004
 graz           4           7           2   4.4348673365896307E-014   6.2133334178043969E-013  0.18000000000000002        1.4439648061218482E-004   3.6414398414986738E-004
 graz           4           7           3   2.4593288046793056E-013   6.2133334178043969E-013   1.0000000000000000        1.4413354781577349E-004   3.6414398414986738E-004
 graz           4           7           4   2.4593288046793056E-013   6.2133334178043969E-013   1.0000000000000000        1.4413354781577349E-004   3.6414398414986738E-004
 graz           4           7           5   3.3201178182717986E-015   6.2133334178043969E-013  0.13500000000000001        1.4413458676155646E-005   3.6414398414986738E-004
 graz           4           7           6   3.9421130720732040E-014   6.2133334178043969E-013  0.16000000000000003        1.4439680195663698E-004   3.6414398414986738E-004
 graz           4           8           1   2.1188696182978517E-013   7.4570636556643667E-013  0.85999999999999999        1.4439660914990828E-004   4.3703786171791142E-004
 graz           4           8           2   2.2174197196822728E-013   7.4570636556643667E-013  0.90000000000000002        1.4439648061218482E-004   4.3703786171791142E-004
 graz           4           8           3   4.9186266688844046E-014   7.4570636556643667E-013  0.20000000000000001        1.4413354781577349E-004   4.3703786171791142E-004
 graz           4           8           4   4.9186266688844046E-014   7.4570636556643667E-013  0.20000000000000001        1.4413354781577349E-004   4.3703786171791142E-004
 graz           4           8           5   1.6600484666505832E-014   7.4570636556643667E-013  0.67500000000000004        1.4413458676155646E-005   4.3703786171791142E-004
 graz           4           8           6   1.9710441372423047E-013   7.4570636556643667E-013  0.80000000000000004        1.4439680195663698E-004   4.3703786171791142E-004
 prey           4          26           1   2.5426462076946363E-013
 prey           4          26           2   2.6609064533412357E-013
 prey           4          26           3   2.9511914715677462E-013
 prey           4          26           4   2.9511914715677462E-013
 prey           4          26           5   1.9920602484777629E-014
 prey           4          26           6   2.3652554444496253E-013
 pred           4          26           7   4.4527964108652038E-013
 pred           4          26           8   6.0640234579091838E-013
 mort           4           1   8.7540303566530149E-011   1.6534391534391535E-006  0.36665941055494305        1.4439660914990709E-004   0.0000000000000000        0.0000000000000000       0.36665941055494305        2.0850380733991031E-008
 mort           4           2   8.7540225640660570E-011   1.6534391534391535E-006  0.36665941055494305        1.4439648061218363E-004   0.0000000000000000        0.0000000000000000       0.36665941055494305        2.0850343613184721E-008
 mort           4           3   8.7380822889093552E-011   1.6534391534391535E-006  0.36665941055494305        1.4413354781577230E-004   0.0000000000000000        0.0000000000000000       0.36665941055494305        2.0774479605961519E-008
 mort           4           4   8.7380822889093552E-011   1.6534391534391535E-006  0.36665941055494305        1.4413354781577230E-004   0.0000000000000000        0.0000000000000000       0.36665941055494305        2.0774479605961519E-008
 mort           4           5   8.7381452748955345E-012   1.6534391534391535E-006  0.36665941055494305        1.4413458676154447E-005   0.0000000000000000        0.0000000000000000       0.36665941055494305        2.0774779100921190E-010
 mort           4           6   8.7540420455421501E-011   1.6534391534391535E-006  0.36665941055494305        1.4439680195663579E-004   0.0000000000000000        0.0000000000000000       0.36665941055494305        2.0850436415303898E-008
 mort           4           7   4.1745144159474523E-010   2.3148148148148148E-007  0.36665941055494305        4.8253002282776054E-003   7.9047431107408234E-012   9.2592592592592583E-007  0.36665941055494305        2.3283522293015912E-005
 mort           4           8   4.1745159520357149E-010   2.3148148148148148E-007  0.36665941055494305        4.8253019708376669E-003   7.9047488200196154E-012   9.2592592592592583E-007  0.36665941055494305        2.3283539109769871E-005
 graz           4           7           1   5.1039031525293044E-015   7.4890132038067523E-014  0.17200000000000001        4.7312534502136152E-005   1.1940618742272353E-004
 graz           4           7           2   5.3412922546277295E-015   7.4890132038067523E-014  0.18000000000000002        4.7312519069893205E-005   1.1940618742272353E-004
 graz           4           7           3   2.9648431269753344E-014   7.4890132038067523E-014   1.0000000000000000        4.7271997586896724E-005   1.1940618742272353E-004
 graz           4           7           4   2.9648431269753344E-014   7.4890132038067523E-014   1.0000000000000000        4.7271997586896724E-005   1.1940618742272353E-004
 graz           4           7           5   4.0025488238903518E-016   7.4890132038067523E-014  0.13500000000000001        4.7272122807464536E-006   1.1940618742272353E-004
 graz           4           7           6   4.7478192090147530E-015   7.4890132038067523E-014  0.16000000000000003        4.7312557650506864E-005   1.1940618742272353E-004
 graz           4           8           1   2.5519843891143125E-014   8.9826874974754907E-014  0.85999999999999999        4.7312534502136152E-005   1.4321976027940902E-004
 graz           4           8           2   2.6706804663313792E-014   8.9826874974754907E-014  0.90000000000000002        4.7312519069893205E-005   1.4321976027940902E-004
 graz           4           8           3   5.9297624975226075E-015   8.9826874974754907E-014  0.20000000000000001        4.7271997586896724E-005   1.4321976027940902E-004
 graz           4           8           4   5.9297624975226075E-015   8.9826874974754907E-014  0.20000000000000001        4.7271997586896724E-005   1.4321976027940902E-004
 graz           4           8           5   2.0013001442188679E-015   8.9826874974754907E-014  0.67500000000000004        4.7272122807464536E-006   1.4321976027940902E-004
 graz           4           8           6   2.3739401281033905E-014   8.9826874974754907E-014  0.80000000000000004        4.7312557650506864E-005   1.4321976027940902E-004
 prey           4          27           1   3.0623747043672432E-014
 prey           4          27           2   3.2048096917941523E-014
 prey           4          27           3   3.5578193767275950E-014
 prey           4          27           4   3.5578193767275950E-014
 prey           4          27           5   2.4015550266079033E-015
 prey           4          27           6   2.8487220490048658E-014
 pred           4          27           7   5.3674797831029680E-014
 pred           4          27           8   7.3047452479308446E-014
 mort           4           1   2.7924566707498404E-011   1.6534391534391535E-006  0.35696202121518000        4.7312534502134952E-005   0.0000000000000000        0.0000000000000000       0.35696202121518000        2.2384759210157103E-009
 mort           4           2   2.7924557599157406E-011   1.6534391534391535E-006  0.35696202121518000        4.7312519069892006E-005   0.0000000000000000        0.0000000000000000       0.35696202121518000        2.2384744607388948E-009
 mort           4           3   2.7900641212793221E-011   1.6534391534391535E-006  0.35696202121518000        4.7271997586895525E-005   0.0000000000000000        0.0000000000000000       0.35696202121518000        2.2346417558554562E-009
 mort           4           4   2.7900641212793221E-011   1.6534391534391535E-006  0.35696202121518000        4.7271997586895525E-005   0.0000000000000000        0.0000000000000000       0.35696202121518000        2.2346417558554562E-009
 mort           4           5   2.7900715119842045E-012   1.6534391534391535E-006  0.35696202121518000        4.7272122807452534E-006   0.0000000000000000        0.0000000000000000       0.35696202121518000        2.2346535947228739E-011
 mort           4           6   2.7924580370013607E-011   1.6534391534391535E-006  0.35696202121518000        4.7312557650505665E-005   0.0000000000000000        0.0000000000000000       0.35696202121518000        2.2384781114324220E-009
 mort           4           7   1.5164034806533155E-010   2.3148148148148148E-007  0.35696202121518000        1.8218936853116280E-003   1.0970952069954966E-012   9.2592592592592583E-007  0.35696202121518000        3.3192966005783851E-006
 mort           4           8   1.5164036565751695E-010   2.3148148148148148E-007  0.35696202121518000        1.8218938951559906E-003   1.0970954597207346E-012   9.2592592592592583E-007  0.35696202121518000        3.3192973652066674E-006
 graz           4           7           1   3.2209237594856687E-016   4.7228514577245358E-015  0.17200000000000001        9.2518889629987974E-006   2.3333651128097744E-005
 graz           4           7           2   3.3707338119164032E-016   4.7228514577245358E-015  0.18000000000000002        9.2518879886406808E-006   2.3333651128097744E-005
 graz           4           7           3   1.8694138648351311E-015   4.7228514577245358E-015   1.0000000000000000        9.2359989143313028E-006   2.3333651128097744E-005
 graz           4           7           4   1.8694138648351311E-015   4.7228514577245358E-015   1.0000000000000000        9.2359989143313028E-006   2.3333651128097744E-005
 graz           4           7           5   2.5237108746558981E-017   4.7228514577245358E-015  0.13500000000000001        9.2360068087590848E-007   2.3333651128097744E-005
 graz           4           7           6   2.9962086216750742E-016   4.7228514577245358E-015  0.16000000000000003        9.2518904245360976E-006   2.3333651128097744E-005
 graz           4           8           1   1.6105988269968570E-015   5.6683661604670792E-015  0.85999999999999999        9.2518889629987974E-006   2.8002666062908214E-005
 graz           4           8           2   1.6855102228368527E-015   5.6683661604670792E-015  0.90000000000000002        9.2518879886406808E-006   2.8002666062908214E-005
 graz           4           8           3   3.7391456646659824E-016   5.6683661604670792E-015  0.20000000000000001        9.2359989143313028E-006   2.8002666062908214E-005
 graz           4           8           4   3.7391456646659824E-016   5.6683661604670792E-015  0.20000000000000001        9.2359989143313028E-006   2.8002666062908214E-005
 graz           4           8           5   1.2619627404807212E-016   5.6683661604670792E-015  0.67500000000000004        9.2360068087590848E-007   2.8002666062908214E-005
 graz           4           8           6   1.4982317036521014E-015   5.6683661604670792E-015  0.80000000000000004        9.2518904245360976E-006   2.8002666062908214E-005
 prey           4          28           1   1.9326912029454240E-015
 prey           4          28           2   2.0225836040284929E-015
 prey           4          28           3   2.2433284313017294E-015
 prey           4          28           4   2.2433284313017294E-015
 prey           4          28           5   1.5143338279463110E-016
 prey           4          28           6   1.7978525658196089E-015
 pred           4          28           7   3.3846716749579189E-015
 pred           4          28           8   4.6094758416669839E-015
 mort           4           1   5.3438378128206443E-012   1.6534391534391535E-006  0.34932899888011382        9.2518889629975980E-006   0.0000000000000000        0.0000000000000000       0.34932899888011382        8.5597449383636766E-011
 mort           4           2   5.3438372500370038E-012   1.6534391534391535E-006  0.34932899888011382        9.2518879886394814E-006   0.0000000000000000        0.0000000000000000       0.34932899888011382        8.5597431354331505E-011
 mort           4           3   5.3346598121705572E-012   1.6534391534391535E-006  0.34932899888011382        9.2359989143301034E-006   0.0000000000000000        0.0000000000000000       0.34932899888011382        8.5303675945506848E-011
 mort           4           4   5.3346598121705572E-012   1.6534391534391535E-006  0.34932899888011382        9.2359989143301034E-006   0.0000000000000000        0.0000000000000000       0.34932899888011382        8.5303675945506848E-011
 mort           4           5   5.3346643719403669E-013   1.6534391534391535E-006  0.34932899888011382        9.2360068087470844E-007   0.0000000000000000        0.0000000000000000       0.34932899888011382        8.5303821771222503E-013
 mort           4           6   5.3438386569961769E-012   1.6534391534391535E-006  0.34932899888011382        9.2518904245348982E-006   0.0000000000000000        0.0000000000000000       0.34932899888011382        8.5597476427600533E-011
 mort           4           7   4.8719272089820099E-011   2.3148148148148148E-007  0.34932899888011382        6.0104505634497147E-004   1.1684898453527227E-013   9.2592592592592583E-007  0.34932899888011382        3.6125515975672993E-007
 mort           4           8   4.8719273165957887E-011   2.3148148148148148E-007  0.34932899888011382        6.0104506958941597E-004   1.1684898968496906E-013   9.2592592592592583E-007  0.34932899888011382        3.6125517567774586E-007
 graz           4           7           1   1.3814105296670603E-017   2.0238088918744093E-016  0.17200000000000001        9.2845450044960138E-007   2.3395687417855193E-006
 graz           4           7           2   1.4456621171323136E-017   2.0238088918744093E-016  0.18000000000000002        9.2845445865463275E-007   2.3395687417855193E-006
 graz           4           7           3   8.0089312614172774E-017   2.0238088918744093E-016   1.0000000000000000        9.2585052420470901E-007   2.3395687417855193E-006
 graz           4           7           4   8.0089312614172774E-017   2.0238088918744093E-016   1.0000000000000000        9.2585052420470901E-007   2.3395687417855193E-006
 graz           4           7           5   1.0812061148721753E-018   2.0238088918744093E-016  0.13500000000000001        9.2585086208941798E-008   2.3395687417855193E-006
 graz           4           7           6   1.2850331376229501E-017   2.0238088918744093E-016  0.16000000000000003        9.2845456314205665E-007   2.3395687417855193E-006
 graz           4           8           1   6.9130103106209267E-017   2.4325668450749963E-016  0.85999999999999999        9.2845450044960138E-007   2.8096786765623910E-006
 graz           4           8           2   7.2345453482379554E-017   2.4325668450749963E-016  0.90000000000000002        9.2845445865463275E-007   2.8096786765623910E-006
 graz           4           8           3   1.6031678693103886E-017   2.4325668450749963E-016  0.20000000000000001        9.2585052420470901E-007   2.8096786765623910E-006
 graz           4           8           4   1.6031678693103886E-017   2.4325668450749963E-016  0.20000000000000001        9.2585052420470901E-007   2.8096786765623910E-006
 graz           4           8           5   5.4106935335285007E-018   2.4325668450749963E-016  0.67500000000000004        9.2585086208941798E-008   2.8096786765623910E-006
 graz           4           8           6   6.4307076999174546E-017   2.4325668450749963E-016  0.80000000000000004        9.2845456314205665E-007   2.8096786765623910E-006
 prey           4          29           1   8.2944208402879870E-017
 prey           4          29           2   8.6802074653702693E-017
 prey           4          29           3   9.6120991307276667E-017
 prey           4          29           4   9.6120991307276667E-017
 prey           4          29           5   6.4918996484006764E-018
 prey           4          29           6   7.7157408375404053E-017
 pred           4          29           7   1.4502380576631459E-016
 pred           4          29           8   1.9781168334462050E-016
 mort           4           1   5.2738203596483597E-013   1.6534391534391535E-006  0.34353934974464473        9.2845450044840135E-007   0.0000000000000000        0.0000000000000000       0.34353934974464473        8.6202775940289052E-013
 mort           4           2   5.2738201222439888E-013   1.6534391534391535E-006  0.34353934974464473        9.2845445865343272E-007   0.0000000000000000        0.0000000000000000       0.34353934974464473        8.6202768179343877E-013
 mort           4           3   5.2590292170240065E-013   1.6534391534391535E-006  0.34353934974464473        9.2585052420350897E-007   0.0000000000000000        0.0000000000000000       0.34353934974464473        8.5719919316791240E-013
 mort           4           4   5.2590292170240065E-013   1.6534391534391535E-006  0.34353934974464473        9.2585052420350897E-007   0.0000000000000000        0.0000000000000000       0.34353934974464473        8.5719919316791240E-013
 mort           4           5   5.2590311362201547E-014   1.6534391534391535E-006  0.34353934974464473        9.2585086207741804E-008   0.0000000000000000        0.0000000000000000       0.34353934974464473        8.5719981880949814E-015
 mort           4           6   5.2738207157549287E-013   1.6534391534391535E-006  0.34353934974464473        9.2845456314085662E-007   0.0000000000000000        0.0000000000000000       0.34353934974464473        8.6202787581707895E-013
 mort           4           7   2.0889787060255010E-011   2.3148148148148148E-007  0.34353934974464473        2.6241318426951970E-004   2.1904030539166423E-014   9.2592592592592583E-007  0.34353934974464473        6.8860679278468895E-008
 mort           4           8   2.0889787105647393E-011   2.3148148148148148E-007  0.34353934974464473        2.6241318483913220E-004   2.1904030634259279E-014   9.2592592592592583E-007  0.34353934974464473        6.8860679577416561E-008
 graz           4           7           1   3.8644743413702002E-019   5.6672427531902503E-018  0.17200000000000001        1.0992363666291422E-007   2.7726874875963143E-007
 graz           4           7           2   4.0442172906937048E-019   5.6672427531902503E-018  0.18000000000000002        1.0992363548604528E-007   2.7726874875963143E-007
 graz           4           7           3   2.2433015129755708E-018   5.6672427531902503E-018   1.0000000000000000        1.0975308993834519E-007   2.7726874875963143E-007
 graz           4           7           4   2.2433015129755708E-018   5.6672427531902503E-018   1.0000000000000000        1.0975308993834519E-007   2.7726874875963143E-007
 graz           4           7           5   3.0284573015863138E-020   5.6672427531902503E-018  0.13500000000000001        1.0975309932717094E-008   2.7726874875963143E-007
 graz           4           7           6   3.5948599101685505E-019   5.6672427531902503E-018  0.16000000000000003        1.0992363842821763E-007   2.7726874875963143E-007
 graz           4           8           1   1.9468034580217470E-018   6.8517853689664236E-018  0.85999999999999999        1.0992363666291422E-007   3.3271408039004316E-007
 graz           4           8           2   2.0373524342568842E-018   6.8517853689664236E-018  0.90000000000000002        1.0992363548604528E-007   3.3271408039004316E-007
 graz           4           8           3   4.5204255555209997E-019   6.8517853689664236E-018  0.20000000000000001        1.0975308993834519E-007   3.3271408039004316E-007
 graz           4           8           4   4.5204255555209997E-019   6.8517853689664236E-018  0.20000000000000001        1.0975308993834519E-007   3.3271408039004316E-007
 graz           4           8           5   1.5256437554994888E-019   6.8517853689664236E-018  0.67500000000000004        1.0975309932717094E-008   3.3271408039004316E-007
 graz           4           8           6   1.8109799900336445E-018   6.8517853689664236E-018  0.80000000000000004        1.0992363842821763E-007   3.3271408039004316E-007
 prey           4          30           1   2.3332508921587670E-018
 prey           4          30           2   2.4417741633262548E-018
 prey           4          30           3   2.6953440685276708E-018
 prey           4          30           4   2.6953440685276708E-018
 prey           4          30           5   1.8284894856581201E-019
 prey           4          30           6   2.1704659810504996E-018
 pred           4          30           7   4.0615383116565569E-018
 pred           4          30           8   5.5718368062835586E-018
 mort           4           1   6.1647549134037604E-014   1.6534391534391535E-006  0.33918490006846636        1.0992363666171422E-007   0.0000000000000000        0.0000000000000000       0.33918490006846636        1.2083205896936564E-014
 mort           4           2   6.1647548474024089E-014   1.6534391534391535E-006  0.33918490006846636        1.0992363548484528E-007   0.0000000000000000        0.0000000000000000       0.33918490006846636        1.2083205638205137E-014
 mort           4           3   6.1551902848108447E-014   1.6534391534391535E-006  0.33918490006846636        1.0975308993714519E-007   0.0000000000000000        0.0000000000000000       0.33918490006846636        1.2045740750751081E-014
 mort           4           4   6.1551902848108447E-014   1.6534391534391535E-006  0.33918490006846636        1.0975308993714519E-007   0.0000000000000000        0.0000000000000000       0.33918490006846636        1.2045740750751081E-014
 mort           4           5   6.1551908107507806E-015   1.6534391534391535E-006  0.33918490006846636        1.0975309931517095E-008   0.0000000000000000        0.0000000000000000       0.33918490006846636        1.2045742809285780E-016
 mort           4           6   6.1647550124057876E-014   1.6534391534391535E-006  0.33918490006846636        1.0992363842701764E-007   0.0000000000000000        0.0000000000000000       0.33918490006846636        1.2083206285033710E-014
 mort           4           7   5.1287368783009826E-012   2.3148148148148148E-007  0.33918490006846636        6.5304667816598147E-005   1.3393719636600499E-015   9.2592592592592583E-007  0.33918490006846636        4.2646996386362298E-009
 mort           4           8   5.1287368795841926E-012   2.3148148148148148E-007  0.33918490006846636        6.5304667832933103E-005   1.3393719643300963E-015   9.2592592592592583E-007  0.33918490006846636        4.2646996407697271E-009
 graz           4           7           1   3.1911424871813752E-021   4.6799555956958434E-020  0.17200000000000001        1.0312906957812725E-008   2.6013877013842190E-008
 graz           4           7           2   3.3395677156255747E-021   4.6799555956958434E-020  0.18000000000000002        1.0312906946949651E-008   2.6013877013842190E-008
 graz           4           7           3   1.8525125954130970E-020   4.6799555956958434E-020   1.0000000000000000        1.0297327365240646E-008   2.6013877013842190E-008
 graz           4           7           4   1.8525125954130970E-020   4.6799555956958434E-020   1.0000000000000000        1.0297327365240646E-008   2.6013877013842190E-008
 graz           4           7           5   2.5008920196075464E-022   4.6799555956958434E-020  0.13500000000000001        1.0297327430295990E-009   2.6013877013842190E-008
 graz           4           7           6   2.9685046439287901E-021   4.6799555956958434E-020  0.16000000000000003        1.0312906974107341E-008   2.6013877013842190E-008
 graz           4           8           1   1.8232255519614232E-020   6.4168926887815786E-020  0.85999999999999999        1.0312906957812725E-008   3.1215042362900737E-008
 graz           4           8           2   1.9080267384149302E-020   6.4168926887815786E-020  0.90000000000000002        1.0312906946949651E-008   3.1215042362900737E-008
 graz           4           8           3   4.2336540130751773E-021   6.4168926887815786E-020  0.20000000000000001        1.0297327365240646E-008   3.1215042362900737E-008
 graz           4           8           4   4.2336540130751773E-021   6.4168926887815786E-020  0.20000000000000001        1.0297327365240646E-008   3.1215042362900737E-008
 graz           4           8           5   1.4288582384399585E-021   6.4168926887815786E-020  0.67500000000000004        1.0297327430295990E-009   3.1215042362900737E-008
 graz           4           8           6   1.6960237719461944E-020   6.4168926887815786E-020  0.80000000000000004        1.0312906974107341E-008   3.1215042362900737E-008
 prey           4          31           1   2.1423398006795608E-020
 prey           4          31           2   2.2419835099774876E-020
 prey           4          31           3   2.2758779967206147E-020
 prey           4          31           4   2.2758779967206147E-020
 prey           4          31           5   1.6789474404007132E-021
 prey           4          31           6   1.9928742363390733E-020
 pred           4          31           7   3.3539923146088146E-020
 pred           4          31           8   5.2181872312867672E-020
 mort           4           1   5.7649912990604134E-015   1.6534391534391535E-006  0.33808767521518818        1.0312906956612725E-008   0.0000000000000000        0.0000000000000000       0.33808767521518818        1.0635604989575114E-016
 mort           4           2   5.7649912929878750E-015   1.6534391534391535E-006  0.33808767521518818        1.0312906945749652E-008   0.0000000000000000        0.0000000000000000       0.33808767521518818        1.0635604967169141E-016
 mort           4           3   5.7562821915314884E-015   1.6534391534391535E-006  0.33808767521518818        1.0297327364040647E-008   0.0000000000000000        0.0000000000000000       0.33808767521518818        1.0603495084222030E-016
 mort           4           4   5.7562821915314884E-015   1.6534391534391535E-006  0.33808767521518818        1.0297327364040647E-008   0.0000000000000000        0.0000000000000000       0.33808767521518818        1.0603495084222030E-016
 mort           4           5   5.7562822218606262E-016   1.6534391534391535E-006  0.33808767521518818        1.0297327418295989E-009   0.0000000000000000        0.0000000000000000       0.33808767521518818        1.0603495195959034E-018
 mort           4           6   5.7649913081692246E-015   1.6534391534391535E-006  0.33808767521518818        1.0312906972907341E-008   0.0000000000000000        0.0000000000000000       0.33808767521518818        1.0635605023184086E-016
 mort           4           7   8.0151649363031831E-013   2.3148148148148148E-007  0.33808767521518818        1.0241158344346223E-005   3.2832484336809313E-017   9.2592592592592583E-007  0.33808767521518818        1.0488132423397227E-010
 mort           4           8   8.0151649364610512E-013   2.3148148148148148E-007  0.33808767521518818        1.0241158344547927E-005   3.2832484338102613E-017   9.2592592592592583E-007  0.33808767521518818        1.0488132423810363E-010
 graz           4           7           1   0.0000000000000000        0.0000000000000000       0.17200000000000001        6.9022180186555613E-010   1.2000000000000000E-008
 graz           4           7           2   0.0000000000000000        0.0000000000000000       0.18000000000000002        6.9022180186498610E-010   1.2000000000000000E-008
 graz           4           7           3   0.0000000000000000        0.0000000000000000        1.0000000000000000        6.8871667364081254E-010   1.2000000000000000E-008
 graz           4           7           4   0.0000000000000000        0.0000000000000000        1.0000000000000000        6.8871667364081254E-010   1.2000000000000000E-008
 graz           4           7           5   0.0000000000000000        0.0000000000000000       0.13500000000000001        6.8871667370550034E-011   1.2000000000000000E-008
 graz           4           7           6   0.0000000000000000        0.0000000000000000       0.16000000000000003        6.9022180186641102E-010   1.2000000000000000E-008
 graz           4           8           1   0.0000000000000000        0.0000000000000000       0.85999999999999999        6.9022180186555613E-010   1.2000000000000000E-008
 graz           4           8           2   0.0000000000000000        0.0000000000000000       0.90000000000000002        6.9022180186498610E-010   1.2000000000000000E-008
 graz           4           8           3   0.0000000000000000        0.0000000000000000       0.20000000000000001        6.8871667364081254E-010   1.2000000000000000E-008
 graz           4           8           4   0.0000000000000000        0.0000000000000000       0.20000000000000001        6.8871667364081254E-010   1.2000000000000000E-008
 graz           4           8           5   0.0000000000000000        0.0000000000000000       0.67500000000000004        6.8871667370550034E-011   1.2000000000000000E-008
 graz           4           8           6   0.0000000000000000        0.0000000000000000       0.80000000000000004        6.9022180186641102E-010   1.2000000000000000E-008
 prey           4          32           1   0.0000000000000000     
 prey           4          32           2   0.0000000000000000     
 prey           4          32           3   0.0000000000000000     
 prey           4          32           4   0.0000000000000000     
 prey           4          32           5   0.0000000000000000     
 prey           4          32           6   0.0000000000000000     
 pred           4          32           7   0.0000000000000000     
 pred           4          32           8   0.0000000000000000     
 mort           4           1   3.8338450758600576E-016   1.6534391534391535E-006  0.33593686835801395        6.9022180066555611E-010   0.0000000000000000        0.0000000000000000       0.33593686835801395        4.7640613411400270E-019
 mort           4           2   3.8338450758568918E-016   1.6534391534391535E-006  0.33593686835801395        6.9022180066498608E-010   0.0000000000000000        0.0000000000000000       0.33593686835801395        4.7640613411321577E-019
 mort           4           3   3.8254848235072528E-016   1.6534391534391535E-006  0.33593686835801395        6.8871667244081253E-010   0.0000000000000000        0.0000000000000000       0.33593686835801395        4.7433065489794543E-019
 mort           4           4   3.8254848235072528E-016   1.6534391534391535E-006  0.33593686835801395        6.8871667244081253E-010   0.0000000000000000        0.0000000000000000       0.33593686835801395        4.7433065489794543E-019
 mort           4           5   3.8254847638778359E-017   1.6534391534391535E-006  0.33593686835801395        6.8871666170550033E-011   0.0000000000000000        0.0000000000000000       0.33593686835801395        4.7433064011076862E-021
 mort           4           6   3.8338450758648061E-016   1.6534391534391535E-006  0.33593686835801395        6.9022180066641100E-010   0.0000000000000000        0.0000000000000000       0.33593686835801395        4.7640613411518281E-019
 mort           4           7   6.5996442858155741E-014   2.3148148148148148E-007  0.33593686835801395        8.4868227381843943E-007   2.2403928420247671E-019   9.2592592592592583E-007  0.33593686835801395        7.2026160189363656E-013
 mort           4           8   6.5996442858155741E-014   2.3148148148148148E-007  0.33593686835801395        8.4868227381843954E-007   2.2403928420247676E-019   9.2592592592592583E-007  0.33593686835801395        7.2026160189363677E-013
 graz           4           7           1   0.0000000000000000        0.0000000000000000       0.17200000000000001        4.6156235065863310E-011   1.2000000000000000E-008
 graz           4           7           2   0.0000000000000000        0.0000000000000000       0.18000000000000002        4.6156235065863303E-011   1.2000000000000000E-008
 graz           4           7           3   0.0000000000000000        0.0000000000000000        1.0000000000000000        4.6055542105734031E-011   1.2000000000000000E-008
 graz           4           7           4   0.0000000000000000        0.0000000000000000        1.0000000000000000        4.6055542105734031E-011   1.2000000000000000E-008
 graz           4           7           5   0.0000000000000000        0.0000000000000000       0.13500000000000001        4.6055542169640671E-012   1.2000000000000000E-008
 graz           4           7           6   0.0000000000000000        0.0000000000000000       0.16000000000000003        4.6156235065863329E-011   1.2000000000000000E-008
 graz           4           8           1   0.0000000000000000        0.0000000000000000       0.85999999999999999        4.6156235065863310E-011   1.2000000000000000E-008
 graz           4           8           2   0.0000000000000000        0.0000000000000000       0.90000000000000002        4.6156235065863303E-011   1.2000000000000000E-008
 graz           4           8           3   0.0000000000000000        0.0000000000000000       0.20000000000000001        4.6055542105734031E-011   1.2000000000000000E-008
 graz           4           8           4   0.0000000000000000        0.0000000000000000       0.20000000000000001        4.6055542105734031E-011   1.2000000000000000E-008
 graz           4           8           5   0.0000000000000000        0.0000000000000000       0.67500000000000004        4.6055542169640671E-012   1.2000000000000000E-008
 graz           4           8           6   0.0000000000000000        0.0000000000000000       0.80000000000000004        4.6156235065863329E-011   1.2000000000000000E-008
 prey           4          33           1   0.0000000000000000     
 prey           4          33           2   0.0000000000000000     
 prey           4          33           3   0.0000000000000000     
 prey           4          33           4   0.0000000000000000     
 prey           4          33           5   0.0000000000000000     
 prey           4          33           6   0.0000000000000000     
 pred           4          33           7   0.0000000000000000     
 pred           4          33           8   0.0000000000000000     
 mort           4           1   2.5338878851075279E-017   1.6534391534391535E-006  0.33202349164073613        4.6156233865863309E-011   0.0000000000000000        0.0000000000000000       0.33202349164073613        2.1303979246802670E-021
 mort           4           2   2.5338878851075276E-017   1.6534391534391535E-006  0.33202349164073613        4.6156233865863302E-011   0.0000000000000000        0.0000000000000000       0.33202349164073613        2.1303979246802663E-021
 mort           4           3   2.5283600365285324E-017   1.6534391534391535E-006  0.33202349164073613        4.6055540905734031E-011   0.0000000000000000        0.0000000000000000       0.33202349164073613        2.1211128481197406E-021
 mort           4           4   2.5283600365285324E-017   1.6534391534391535E-006  0.33202349164073613        4.6055540905734031E-011   0.0000000000000000        0.0000000000000000       0.33202349164073613        2.1211128481197406E-021
 mort           4           5   2.5283594471377914E-018   1.6534391534391535E-006  0.33202349164073613        4.6055530169640672E-012   0.0000000000000000        0.0000000000000000       0.33202349164073613        2.1211118592066822E-023
 mort           4           6   2.5338878851075291E-017   1.6534391534391535E-006  0.33202349164073613        4.6156233865863328E-011   0.0000000000000000        0.0000000000000000       0.33202349164073613        2.1303979246802689E-021
 mort           4           7   2.7264290405602027E-015   2.3148148148148148E-007  0.33202349164073613        3.5473910974628569E-008   3.8686834935896490E-022   9.2592592592592583E-007  0.33202349164073613        1.2583983598358733E-015
 mort           4           8   2.7264290405602027E-015   2.3148148148148148E-007  0.33202349164073613        3.5473910974628569E-008   3.8686834935896490E-022   9.2592592592592583E-007  0.33202349164073613        1.2583983598358733E-015
 graz           4           7           1   0.0000000000000000        0.0000000000000000       0.17200000000000001        1.7397719310647070E-012   1.2000000000000000E-008
 graz           4           7           2   0.0000000000000000        0.0000000000000000       0.18000000000000002        1.7397719310647070E-012   1.2000000000000000E-008
 graz           4           7           3   0.0000000000000000        0.0000000000000000        1.0000000000000000        1.7342166328575677E-012   1.2000000000000000E-008
 graz           4           7           4   0.0000000000000000        0.0000000000000000        1.0000000000000000        1.7342166328575677E-012   1.2000000000000000E-008
 graz           4           7           5   0.0000000000000000        0.0000000000000000       0.13500000000000001        1.7342166957152160E-013   1.2000000000000000E-008
 graz           4           7           6   0.0000000000000000        0.0000000000000000       0.16000000000000003        1.7397719310647070E-012   1.2000000000000000E-008
 graz           4           8           1   0.0000000000000000        0.0000000000000000       0.85999999999999999        1.7397719310647070E-012   1.2000000000000000E-008
 graz           4           8           2   0.0000000000000000        0.0000000000000000       0.90000000000000002        1.7397719310647070E-012   1.2000000000000000E-008
 graz           4           8           3   0.0000000000000000        0.0000000000000000       0.20000000000000001        1.7342166328575677E-012   1.2000000000000000E-008
 graz           4           8           4   0.0000000000000000        0.0000000000000000       0.20000000000000001        1.7342166328575677E-012   1.2000000000000000E-008
 graz           4           8           5   0.0000000000000000        0.0000000000000000       0.67500000000000004        1.7342166957152160E-013   1.2000000000000000E-008
 graz           4           8           6   0.0000000000000000        0.0000000000000000       0.80000000000000004        1.7397719310647070E-012   1.2000000000000000E-008
 prey           4          34           1   0.0000000000000000     
 prey           4          34           2   0.0000000000000000     
 prey           4          34           3   0.0000000000000000     
 prey           4          34           4   0.0000000000000000     
 prey           4          34           5   0.0000000000000000     
 prey           4          34           6   0.0000000000000000     
 pred           4          34           7   0.0000000000000000     
 pred           4          34           8   0.0000000000000000     
 mort           4           1   9.3939252345714609E-019   1.6534391534391535E-006  0.32656291317143155        1.7397707310647069E-012   0.0000000000000000        0.0000000000000000       0.32656291317143155        3.0268021966694248E-024
 mort           4           2   9.3939252345714609E-019   1.6534391534391535E-006  0.32656291317143155        1.7397707310647069E-012   0.0000000000000000        0.0000000000000000       0.32656291317143155        3.0268021966694248E-024
 mort           4           3   9.3639292959792076E-019   1.6534391534391535E-006  0.32656291317143155        1.7342154328575676E-012   0.0000000000000000        0.0000000000000000       0.32656291317143155        3.0075031675613607E-024
 mort           4           4   9.3639292959792076E-019   1.6534391534391535E-006  0.32656291317143155        1.7342154328575676E-012   0.0000000000000000        0.0000000000000000       0.32656291317143155        3.0075031675613607E-024
 mort           4           5   9.3638713205743543E-020   1.6534391534391535E-006  0.32656291317143155        1.7342046957152159E-013   0.0000000000000000        0.0000000000000000       0.32656291317143155        3.0074659266407047E-026
 mort           4           6   9.3939252345714609E-019   1.6534391534391535E-006  0.32656291317143155        1.7397707310647069E-012   0.0000000000000000        0.0000000000000000       0.32656291317143155        3.0268021966694248E-024
 mort           4           7   1.0797972522721194E-016   2.3148148148148148E-007  0.32656291317143155        1.4284304539853977E-009   6.1696610818492656E-025   9.2592592592592583E-007  0.32656291317143155        2.0404135618729295E-018
 mort           4           8   1.0797972522721194E-016   2.3148148148148148E-007  0.32656291317143155        1.4284304539853977E-009   6.1696610818492656E-025   9.2592592592592583E-007  0.32656291317143155        2.0404135618729295E-018
 graz           4           7           1   0.0000000000000000        0.0000000000000000       0.17200000000000001        4.0107001983879371E-014   1.2000000000000000E-008
 graz           4           7           2   0.0000000000000000        0.0000000000000000       0.18000000000000002        4.0107001983879371E-014   1.2000000000000000E-008
 graz           4           7           3   0.0000000000000000        0.0000000000000000        1.0000000000000000        3.9889561769437482E-014   1.2000000000000000E-008
 graz           4           7           4   0.0000000000000000        0.0000000000000000        1.0000000000000000        3.9889561769437482E-014   1.2000000000000000E-008
 graz           4           7           5   0.0000000000000000        0.0000000000000000       0.13500000000000001        3.9889623248163851E-015   1.2000000000000000E-008
 graz           4           7           6   0.0000000000000000        0.0000000000000000       0.16000000000000003        4.0107001983879371E-014   1.2000000000000000E-008
 graz           4           8           1   0.0000000000000000        0.0000000000000000       0.85999999999999999        4.0107001983879371E-014   1.2000000000000000E-008
 graz           4           8           2   0.0000000000000000        0.0000000000000000       0.90000000000000002        4.0107001983879371E-014   1.2000000000000000E-008
 graz           4           8           3   0.0000000000000000        0.0000000000000000       0.20000000000000001        3.9889561769437482E-014   1.2000000000000000E-008
 graz           4           8           4   0.0000000000000000        0.0000000000000000       0.20000000000000001        3.9889561769437482E-014   1.2000000000000000E-008
 graz           4           8           5   0.0000000000000000        0.0000000000000000       0.67500000000000004        3.9889623248163851E-015   1.2000000000000000E-008
 graz           4           8           6   0.0000000000000000        0.0000000000000000       0.80000000000000004        4.0107001983879371E-014   1.2000000000000000E-008
 prey           4          35           1   0.0000000000000000     
 prey           4          35           2   0.0000000000000000     
 prey           4          35           3   0.0000000000000000     
 prey           4          35           4   0.0000000000000000     
 prey           4          35           5   0.0000000000000000     
 prey           4          35           6   0.0000000000000000     
 pred           4          35           7   0.0000000000000000     
 pred           4          35           8   0.0000000000000000     
 mort           4           1   2.1179245349708391E-020   1.6534391534391535E-006  0.31938539946545208        4.0105801983879372E-014   0.0000000000000000        0.0000000000000000       0.31938539946545208        1.6084753527701426E-027
 mort           4           2   2.1179245349708391E-020   1.6534391534391535E-006  0.31938539946545208        4.0105801983879372E-014   0.0000000000000000        0.0000000000000000       0.31938539946545208        1.6084753527701426E-027
 mort           4           3   2.1064418580942884E-020   1.6534391534391535E-006  0.31938539946545208        3.9888361769437483E-014   0.0000000000000000        0.0000000000000000       0.31938539946545208        1.5910814046495219E-027
 mort           4           4   2.1064418580942884E-020   1.6534391534391535E-006  0.31938539946545208        3.9888361769437483E-014   0.0000000000000000        0.0000000000000000       0.31938539946545208        1.5910814046495219E-027
 mort           4           5   2.1058747736189832E-021   1.6534391534391535E-006  0.31938539946545208        3.9877623248163850E-015   0.0000000000000000        0.0000000000000000       0.31938539946545208        1.5902248359224979E-029
 mort           4           6   2.1179245349708391E-020   1.6534391534391535E-006  0.31938539946545208        4.0105801983879372E-014   0.0000000000000000        0.0000000000000000       0.31938539946545208        1.6084753527701426E-027
 mort           4           7   1.7834757573540221E-016   2.3148148148148148E-007  0.31938539946545208        2.4123254257459025E-009   1.7209295496608463E-024   9.2592592592592583E-007  0.31938539946545208        5.8193139597001497E-018
 mort           4           8   1.7834757573540221E-016   2.3148148148148148E-007  0.31938539946545208        2.4123254257459025E-009   1.7209295496608463E-024   9.2592592592592583E-007  0.31938539946545208        5.8193139597001497E-018
(PID.TID 0000.0001) totgC   -1.6761594136654637E+06  -5.4399887176647488E-08
(PID.TID 0000.0001) totgN    1.9122727905382292E+03   6.2062965615402280E-11
(PID.TID 0000.0001) totgP   -9.1886553399455392E-13  -2.9821854038633924E-26
(PID.TID 0000.0001) totgFe   2.9662165900970276E+01   9.6268795513851850E-13
(PID.TID 0000.0001) totgSi  -1.4734028248629806E-10  -4.7819405949592558E-24
(PID.TID 0000.0001) totgA   -6.2280886717442959E+05  -2.0213311353729443E-08
(PID.TID 0000.0001) totgO   -3.0629604446182698E+06  -9.9408625012217196E-08
 fe   3.3603308312241435E-006
(PID.TID 0000.0001) // =======================================================
(PID.TID 0000.0001) // Begin MONITOR dynamic field statistics
(PID.TID 0000.0001) // =======================================================
(PID.TID 0000.0001) %MON time_tsnumber                =                     4
(PID.TID 0000.0001) %MON time_secondsf                =   1.4400000000000000E+04
(PID.TID 0000.0001) %MON dynstat_eta_max              =   0.0000000000000000E+00
(PID.TID 0000.0001) %MON dynstat_eta_min              =   0.0000000000000000E+00
(PID.TID 0000.0001) %MON dynstat_eta_mean             =   0.0000000000000000E+00
(PID.TID 0000.0001) %MON dynstat_eta_sd               =   0.0000000000000000E+00
(PID.TID 0000.0001) %MON dynstat_eta_del2             =   0.0000000000000000E+00
(PID.TID 0000.0001) %MON dynstat_uvel_max             =   0.0000000000000000E+00
(PID.TID 0000.0001) %MON dynstat_uvel_min             =   0.0000000000000000E+00
(PID.TID 0000.0001) %MON dynstat_uvel_mean            =   0.0000000000000000E+00
(PID.TID 0000.0001) %MON dynstat_uvel_sd              =   0.0000000000000000E+00
(PID.TID 0000.0001) %MON dynstat_uvel_del2            =   0.0000000000000000E+00
(PID.TID 0000.0001) %MON dynstat_vvel_max             =   0.0000000000000000E+00
(PID.TID 0000.0001) %MON dynstat_vvel_min             =   0.0000000000000000E+00
(PID.TID 0000.0001) %MON dynstat_vvel_mean            =   0.0000000000000000E+00
(PID.TID 0000.0001) %MON dynstat_vvel_sd              =   0.0000000000000000E+00
(PID.TID 0000.0001) %MON dynstat_vvel_del2            =   0.0000000000000000E+00
(PID.TID 0000.0001) %MON dynstat_wvel_max             =   0.0000000000000000E+00
(PID.TID 0000.0001) %MON dynstat_wvel_min             =   0.0000000000000000E+00
(PID.TID 0000.0001) %MON dynstat_wvel_mean            =   0.0000000000000000E+00
(PID.TID 0000.0001) %MON dynstat_wvel_sd              =   0.0000000000000000E+00
(PID.TID 0000.0001) %MON dynstat_wvel_del2            =   0.0000000000000000E+00
(PID.TID 0000.0001) %MON dynstat_theta_max            =   8.2508948224563863E+00
(PID.TID 0000.0001) %MON dynstat_theta_min            =   1.5167024474105579E+00
(PID.TID 0000.0001) %MON dynstat_theta_mean           =   2.8238325601456404E+00
(PID.TID 0000.0001) %MON dynstat_theta_sd             =   1.3640210027633008E+00
(PID.TID 0000.0001) %MON dynstat_theta_del2           =   0.0000000000000000E+00
(PID.TID 0000.0001) %MON dynstat_salt_max             =   3.5000000000000000E+01
(PID.TID 0000.0001) %MON dynstat_salt_min             =   3.5000000000000000E+01
(PID.TID 0000.0001) %MON dynstat_salt_mean            =   3.4999999999999986E+01
(PID.TID 0000.0001) %MON dynstat_salt_sd              =   1.4210854715202004E-14
(PID.TID 0000.0001) %MON dynstat_salt_del2            =   0.0000000000000000E+00
(PID.TID 0000.0001) %MON dynstat_sst_max              =   8.2508948224563863E+00
(PID.TID 0000.0001) %MON dynstat_sst_min              =   8.2508948224563863E+00
(PID.TID 0000.0001) %MON dynstat_sst_mean             =   8.2508948224563863E+00
(PID.TID 0000.0001) %MON dynstat_sst_sd               =   0.0000000000000000E+00
(PID.TID 0000.0001) %MON dynstat_sst_del2             =   0.0000000000000000E+00
(PID.TID 0000.0001) %MON dynstat_sss_max              =   3.5000000000000000E+01
(PID.TID 0000.0001) %MON dynstat_sss_min              =   3.5000000000000000E+01
(PID.TID 0000.0001) %MON dynstat_sss_mean             =   3.5000000000000000E+01
(PID.TID 0000.0001) %MON dynstat_sss_sd               =   0.0000000000000000E+00
(PID.TID 0000.0001) %MON dynstat_sss_del2             =   0.0000000000000000E+00
(PID.TID 0000.0001) %MON forcing_qnet_max             =   0.0000000000000000E+00
(PID.TID 0000.0001) %MON forcing_qnet_min             =   0.0000000000000000E+00
(PID.TID 0000.0001) %MON forcing_qnet_mean            =   0.0000000000000000E+00
(PID.TID 0000.0001) %MON forcing_qnet_sd              =   0.0000000000000000E+00
(PID.TID 0000.0001) %MON forcing_qnet_del2            =   0.0000000000000000E+00
(PID.TID 0000.0001) %MON forcing_qsw_max              =   0.0000000000000000E+00
(PID.TID 0000.0001) %MON forcing_qsw_min              =   0.0000000000000000E+00
(PID.TID 0000.0001) %MON forcing_qsw_mean             =   0.0000000000000000E+00
(PID.TID 0000.0001) %MON forcing_qsw_sd               =   0.0000000000000000E+00
(PID.TID 0000.0001) %MON forcing_qsw_del2             =   0.0000000000000000E+00
(PID.TID 0000.0001) %MON forcing_empmr_max            =   0.0000000000000000E+00
(PID.TID 0000.0001) %MON forcing_empmr_min            =   0.0000000000000000E+00
(PID.TID 0000.0001) %MON forcing_empmr_mean           =   0.0000000000000000E+00
(PID.TID 0000.0001) %MON forcing_empmr_sd             =   0.0000000000000000E+00
(PID.TID 0000.0001) %MON forcing_empmr_del2           =   0.0000000000000000E+00
(PID.TID 0000.0001) %MON forcing_fu_max               =   2.2649708559115727E+00
(PID.TID 0000.0001) %MON forcing_fu_min               =   2.2649708559115727E+00
(PID.TID 0000.0001) %MON forcing_fu_mean              =   2.2649708559115727E+00
(PID.TID 0000.0001) %MON forcing_fu_sd                =   0.0000000000000000E+00
(PID.TID 0000.0001) %MON forcing_fu_del2              =   0.0000000000000000E+00
(PID.TID 0000.0001) %MON forcing_fv_max               =  -4.1337500251829623E-01
(PID.TID 0000.0001) %MON forcing_fv_min               =  -4.1337500251829623E-01
(PID.TID 0000.0001) %MON forcing_fv_mean              =  -4.1337500251829623E-01
(PID.TID 0000.0001) %MON forcing_fv_sd                =   0.0000000000000000E+00
(PID.TID 0000.0001) %MON forcing_fv_del2              =   0.0000000000000000E+00
(PID.TID 0000.0001) %MON advcfl_uvel_max              =   0.0000000000000000E+00
(PID.TID 0000.0001) %MON advcfl_vvel_max              =   0.0000000000000000E+00
(PID.TID 0000.0001) %MON advcfl_wvel_max              =   0.0000000000000000E+00
(PID.TID 0000.0001) %MON advcfl_W_hf_max              =   0.0000000000000000E+00
(PID.TID 0000.0001) %MON pe_b_mean                    =   0.0000000000000000E+00
(PID.TID 0000.0001) %MON ke_max                       =   0.0000000000000000E+00
(PID.TID 0000.0001) %MON ke_mean                      =   0.0000000000000000E+00
(PID.TID 0000.0001) %MON ke_vol                       =   3.0811817830111180E+13
(PID.TID 0000.0001) %MON vort_r_min                   =   0.0000000000000000E+00
(PID.TID 0000.0001) %MON vort_r_max                   =   0.0000000000000000E+00
(PID.TID 0000.0001) %MON vort_a_mean                  =  -1.0312619976227577E-04
(PID.TID 0000.0001) %MON vort_a_sd                    =   2.8760747774580336E-12
(PID.TID 0000.0001) %MON vort_p_mean                  =  -1.0312619976227577E-04
(PID.TID 0000.0001) %MON vort_p_sd                    =   2.8760747774580336E-12
(PID.TID 0000.0001) %MON surfExpan_theta_mean         =   0.0000000000000000E+00
(PID.TID 0000.0001) %MON surfExpan_salt_mean          =   0.0000000000000000E+00
(PID.TID 0000.0001) // =======================================================
(PID.TID 0000.0001) // End MONITOR dynamic field statistics
(PID.TID 0000.0001) // =======================================================
(PID.TID 0000.0001) // =======================================================
(PID.TID 0000.0001) // Begin MONITOR ptracer field statistics
(PID.TID 0000.0001) // =======================================================
(PID.TID 0000.0001) %MON trcstat_ptracer01_max        =   2.2359129433373123E+03
(PID.TID 0000.0001) %MON trcstat_ptracer01_min        =   2.0738852316781190E+03
(PID.TID 0000.0001) %MON trcstat_ptracer01_mean       =   2.2089828095593102E+03
(PID.TID 0000.0001) %MON trcstat_ptracer01_sd         =   4.0006943246249442E+01
(PID.TID 0000.0001) %MON trcstat_ptracer01_del2       =   0.0000000000000000E+00
(PID.TID 0000.0001) %MON trcstat_ptracer02_max        =   3.5607811176944665E-01
(PID.TID 0000.0001) %MON trcstat_ptracer02_min        =   3.2897785716367843E-05
(PID.TID 0000.0001) %MON trcstat_ptracer02_mean       =   6.2300451049251138E-03
(PID.TID 0000.0001) %MON trcstat_ptracer02_sd         =   4.2409004812588941E-02
(PID.TID 0000.0001) %MON trcstat_ptracer02_del2       =   0.0000000000000000E+00
(PID.TID 0000.0001) %MON trcstat_ptracer03_max        =   2.5425426128000178E-01
(PID.TID 0000.0001) %MON trcstat_ptracer03_min        =   6.6225985101119500E-04
(PID.TID 0000.0001) %MON trcstat_ptracer03_mean       =   1.7414937570713253E-02
(PID.TID 0000.0001) %MON trcstat_ptracer03_sd         =   3.7025484453703107E-02
(PID.TID 0000.0001) %MON trcstat_ptracer03_del2       =   0.0000000000000000E+00
(PID.TID 0000.0001) %MON trcstat_ptracer04_max        =   3.4239182219592266E+01
(PID.TID 0000.0001) %MON trcstat_ptracer04_min        =   1.4638437056503193E+01
(PID.TID 0000.0001) %MON trcstat_ptracer04_mean       =   2.9892600973485983E+01
(PID.TID 0000.0001) %MON trcstat_ptracer04_sd         =   3.8824739582942684E+00
(PID.TID 0000.0001) %MON trcstat_ptracer04_del2       =   0.0000000000000000E+00
(PID.TID 0000.0001) %MON trcstat_ptracer05_max        =   2.3348138800526681E+00
(PID.TID 0000.0001) %MON trcstat_ptracer05_min        =   1.2026613151789507E+00
(PID.TID 0000.0001) %MON trcstat_ptracer05_mean       =   2.0209584727092116E+00
(PID.TID 0000.0001) %MON trcstat_ptracer05_sd         =   2.4241328667400489E-01
(PID.TID 0000.0001) %MON trcstat_ptracer05_del2       =   0.0000000000000000E+00
(PID.TID 0000.0001) %MON trcstat_ptracer06_max        =   9.3254144873432821E+01
(PID.TID 0000.0001) %MON trcstat_ptracer06_min        =   3.4273071502382657E+00
(PID.TID 0000.0001) %MON trcstat_ptracer06_mean       =   6.1182624488913355E+01
(PID.TID 0000.0001) %MON trcstat_ptracer06_sd         =   2.6240944562673224E+01
(PID.TID 0000.0001) %MON trcstat_ptracer06_del2       =   0.0000000000000000E+00
(PID.TID 0000.0001) %MON trcstat_ptracer07_max        =   7.9977314926010963E-04
(PID.TID 0000.0001) %MON trcstat_ptracer07_min        =   2.7690764658902883E-06
(PID.TID 0000.0001) %MON trcstat_ptracer07_mean       =   6.0920009644721052E-04
(PID.TID 0000.0001) %MON trcstat_ptracer07_sd         =   1.6571431800749652E-04
(PID.TID 0000.0001) %MON trcstat_ptracer07_del2       =   0.0000000000000000E+00
(PID.TID 0000.0001) %MON trcstat_ptracer08_max        =   1.2549673142030422E+01
(PID.TID 0000.0001) %MON trcstat_ptracer08_min        =   6.8008397231698784E-09
(PID.TID 0000.0001) %MON trcstat_ptracer08_mean       =   5.3361154955223666E-01
(PID.TID 0000.0001) %MON trcstat_ptracer08_sd         =   1.9377567741417037E+00
(PID.TID 0000.0001) %MON trcstat_ptracer08_del2       =   0.0000000000000000E+00
(PID.TID 0000.0001) %MON trcstat_ptracer09_max        =   1.6733593557294024E+00
(PID.TID 0000.0001) %MON trcstat_ptracer09_min        =   9.0678181730451833E-10
(PID.TID 0000.0001) %MON trcstat_ptracer09_mean       =   7.1152649637420365E-02
(PID.TID 0000.0001) %MON trcstat_ptracer09_sd         =   2.5838200847607729E-01
(PID.TID 0000.0001) %MON trcstat_ptracer09_del2       =   0.0000000000000000E+00
(PID.TID 0000.0001) %MON trcstat_ptracer10_max        =   1.0458061298198705E-01
(PID.TID 0000.0001) %MON trcstat_ptracer10_min        =   5.6673662974511313E-11
(PID.TID 0000.0001) %MON trcstat_ptracer10_mean       =   4.4467629856367727E-03
(PID.TID 0000.0001) %MON trcstat_ptracer10_sd         =   1.6147973442279459E-02
(PID.TID 0000.0001) %MON trcstat_ptracer10_del2       =   0.0000000000000000E+00
(PID.TID 0000.0001) %MON trcstat_ptracer11_max        =   1.0458920936644199E-04
(PID.TID 0000.0001) %MON trcstat_ptracer11_min        =   5.6674063593302931E-14
(PID.TID 0000.0001) %MON trcstat_ptracer11_mean       =   4.4473119028292706E-06
(PID.TID 0000.0001) %MON trcstat_ptracer11_sd         =   1.6149756579329711E-05
(PID.TID 0000.0001) %MON trcstat_ptracer11_del2       =   0.0000000000000000E+00
(PID.TID 0000.0001) %MON trcstat_ptracer12_max        =   1.2580643475577644E+00
(PID.TID 0000.0001) %MON trcstat_ptracer12_min        =   4.6492190610778424E-02
(PID.TID 0000.0001) %MON trcstat_ptracer12_mean       =   4.6806769683720301E-01
(PID.TID 0000.0001) %MON trcstat_ptracer12_sd         =   4.4313614836160414E-01
(PID.TID 0000.0001) %MON trcstat_ptracer12_del2       =   0.0000000000000000E+00
(PID.TID 0000.0001) %MON trcstat_ptracer13_max        =   1.6774227377206546E-01
(PID.TID 0000.0001) %MON trcstat_ptracer13_min        =   6.2009904511175946E-03
(PID.TID 0000.0001) %MON trcstat_ptracer13_mean       =   6.2411844672255877E-02
(PID.TID 0000.0001) %MON trcstat_ptracer13_sd         =   5.9084216425365516E-02
(PID.TID 0000.0001) %MON trcstat_ptracer13_del2       =   0.0000000000000000E+00
(PID.TID 0000.0001) %MON trcstat_ptracer14_max        =   1.0483869640165056E-02
(PID.TID 0000.0001) %MON trcstat_ptracer14_min        =   3.8743491406087894E-04
(PID.TID 0000.0001) %MON trcstat_ptracer14_mean       =   3.9005641028585186E-03
(PID.TID 0000.0001) %MON trcstat_ptracer14_sd         =   3.6928011322121387E-03
(PID.TID 0000.0001) %MON trcstat_ptracer14_del2       =   0.0000000000000000E+00
(PID.TID 0000.0001) %MON trcstat_ptracer15_max        =   5.9307148349211680E-01
(PID.TID 0000.0001) %MON trcstat_ptracer15_min        =   7.9135134306288116E-02
(PID.TID 0000.0001) %MON trcstat_ptracer15_mean       =   3.0101618444155187E-01
(PID.TID 0000.0001) %MON trcstat_ptracer15_sd         =   1.6082653083773243E-01
(PID.TID 0000.0001) %MON trcstat_ptracer15_del2       =   0.0000000000000000E+00
(PID.TID 0000.0001) %MON trcstat_ptracer16_max        =   1.0483915682743068E-05
(PID.TID 0000.0001) %MON trcstat_ptracer16_min        =   3.8769096862293250E-07
(PID.TID 0000.0001) %MON trcstat_ptracer16_mean       =   3.9009196004078880E-06
(PID.TID 0000.0001) %MON trcstat_ptracer16_sd         =   3.6927238643445683E-06
(PID.TID 0000.0001) %MON trcstat_ptracer16_del2       =   0.0000000000000000E+00
(PID.TID 0000.0001) %MON trcstat_ptracer17_max        =   8.2581009446863390E-02
(PID.TID 0000.0001) %MON trcstat_ptracer17_min        =   5.3925936424464053E-03
(PID.TID 0000.0001) %MON trcstat_ptracer17_mean       =   5.5139253782920936E-02
(PID.TID 0000.0001) %MON trcstat_ptracer17_sd         =   1.7408528924258298E-02
(PID.TID 0000.0001) %MON trcstat_ptracer17_del2       =   0.0000000000000000E+00
(PID.TID 0000.0001) %MON trcstat_ptracer18_max        =   2.3510737627011017E+03
(PID.TID 0000.0001) %MON trcstat_ptracer18_min        =   2.2765059065703977E+03
(PID.TID 0000.0001) %MON trcstat_ptracer18_mean       =   2.3233191802846882E+03
(PID.TID 0000.0001) %MON trcstat_ptracer18_sd         =   2.5001511357010919E+01
(PID.TID 0000.0001) %MON trcstat_ptracer18_del2       =   0.0000000000000000E+00
(PID.TID 0000.0001) %MON trcstat_ptracer19_max        =   2.9094056589389783E+02
(PID.TID 0000.0001) %MON trcstat_ptracer19_min        =   1.9290054522673560E+02
(PID.TID 0000.0001) %MON trcstat_ptracer19_mean       =   2.2201918744099476E+02
(PID.TID 0000.0001) %MON trcstat_ptracer19_sd         =   2.3972434255277090E+01
(PID.TID 0000.0001) %MON trcstat_ptracer19_del2       =   0.0000000000000000E+00
(PID.TID 0000.0001) %MON trcstat_ptracer20_max        =   3.0413780360530673E-01
(PID.TID 0000.0001) %MON trcstat_ptracer20_min        =   4.0103247197748114E-14
(PID.TID 0000.0001) %MON trcstat_ptracer20_mean       =   4.5795628293351940E-03
(PID.TID 0000.0001) %MON trcstat_ptracer20_sd         =   2.6187490866624440E-02
(PID.TID 0000.0001) %MON trcstat_ptracer20_del2       =   0.0000000000000000E+00
(PID.TID 0000.0001) %MON trcstat_ptracer21_max        =   3.0380035666364841E-01
(PID.TID 0000.0001) %MON trcstat_ptracer21_min        =   4.0103247197748114E-14
(PID.TID 0000.0001) %MON trcstat_ptracer21_mean       =   4.5758338197166718E-03
(PID.TID 0000.0001) %MON trcstat_ptracer21_sd         =   2.6160492568268131E-02
(PID.TID 0000.0001) %MON trcstat_ptracer21_del2       =   0.0000000000000000E+00
(PID.TID 0000.0001) %MON trcstat_ptracer22_max        =   3.0068264681009454E-01
(PID.TID 0000.0001) %MON trcstat_ptracer22_min        =   3.9813729862546087E-14
(PID.TID 0000.0001) %MON trcstat_ptracer22_mean       =   4.5595954176906057E-03
(PID.TID 0000.0001) %MON trcstat_ptracer22_sd         =   2.6002090157638259E-02
(PID.TID 0000.0001) %MON trcstat_ptracer22_del2       =   0.0000000000000000E+00
(PID.TID 0000.0001) %MON trcstat_ptracer23_max        =   3.0074827458306164E-01
(PID.TID 0000.0001) %MON trcstat_ptracer23_min        =   3.9813729862546087E-14
(PID.TID 0000.0001) %MON trcstat_ptracer23_mean       =   4.5614633827757104E-03
(PID.TID 0000.0001) %MON trcstat_ptracer23_sd         =   2.6010664016414931E-02
(PID.TID 0000.0001) %MON trcstat_ptracer23_del2       =   0.0000000000000000E+00
(PID.TID 0000.0001) %MON trcstat_ptracer24_max        =   2.9357371580777857E-02
(PID.TID 0000.0001) %MON trcstat_ptracer24_min        =   3.9813811756313567E-15
(PID.TID 0000.0001) %MON trcstat_ptracer24_mean       =   4.4866914657128734E-04
(PID.TID 0000.0001) %MON trcstat_ptracer24_sd         =   2.5472154845331647E-03
(PID.TID 0000.0001) %MON trcstat_ptracer24_del2       =   0.0000000000000000E+00
(PID.TID 0000.0001) %MON trcstat_ptracer25_max        =   3.0336746064915959E-01
(PID.TID 0000.0001) %MON trcstat_ptracer25_min        =   4.0103247197748114E-14
(PID.TID 0000.0001) %MON trcstat_ptracer25_mean       =   4.5740390621719206E-03
(PID.TID 0000.0001) %MON trcstat_ptracer25_sd         =   2.6139278873340398E-02
(PID.TID 0000.0001) %MON trcstat_ptracer25_del2       =   0.0000000000000000E+00
(PID.TID 0000.0001) %MON trcstat_ptracer26_max        =   4.5802391358689787E-01
(PID.TID 0000.0001) %MON trcstat_ptracer26_min        =   1.4280417269745797E-09
(PID.TID 0000.0001) %MON trcstat_ptracer26_mean       =   1.5959188503455842E-02
(PID.TID 0000.0001) %MON trcstat_ptracer26_sd         =   5.9018499825317837E-02
(PID.TID 0000.0001) %MON trcstat_ptracer26_del2       =   0.0000000000000000E+00
(PID.TID 0000.0001) %MON trcstat_ptracer27_max        =   4.5847078730021812E-01
(PID.TID 0000.0001) %MON trcstat_ptracer27_min        =   1.4280417269745797E-09
(PID.TID 0000.0001) %MON trcstat_ptracer27_mean       =   1.5964359360940136E-02
(PID.TID 0000.0001) %MON trcstat_ptracer27_sd         =   5.9048304494634392E-02
(PID.TID 0000.0001) %MON trcstat_ptracer27_del2       =   0.0000000000000000E+00
(PID.TID 0000.0001) %MON trcstat_ptracer28_max        =   1.3162847052283297E-01
(PID.TID 0000.0001) %MON trcstat_ptracer28_min        =   2.0051623598874057E-14
(PID.TID 0000.0001) %MON trcstat_ptracer28_mean       =   1.7956915900381332E-03
(PID.TID 0000.0001) %MON trcstat_ptracer28_sd         =   1.0628033650707421E-02
(PID.TID 0000.0001) %MON trcstat_ptracer28_del2       =   0.0000000000000000E+00
(PID.TID 0000.0001) %MON trcstat_ptracer29_max        =   1.3058108927863735E-01
(PID.TID 0000.0001) %MON trcstat_ptracer29_min        =   2.0051623598874057E-14
(PID.TID 0000.0001) %MON trcstat_ptracer29_mean       =   1.7795940038304826E-03
(PID.TID 0000.0001) %MON trcstat_ptracer29_sd         =   1.0536298872707491E-02
(PID.TID 0000.0001) %MON trcstat_ptracer29_del2       =   0.0000000000000000E+00
(PID.TID 0000.0001) %MON trcstat_ptracer30_max        =   5.1033431534455637E-02
(PID.TID 0000.0001) %MON trcstat_ptracer30_min        =   7.9627459725092129E-15
(PID.TID 0000.0001) %MON trcstat_ptracer30_mean       =   6.9498940584286335E-04
(PID.TID 0000.0001) %MON trcstat_ptracer30_sd         =   4.1133517237185741E-03
(PID.TID 0000.0001) %MON trcstat_ptracer30_del2       =   0.0000000000000000E+00
(PID.TID 0000.0001) %MON trcstat_ptracer31_max        =   5.1067933989946121E-02
(PID.TID 0000.0001) %MON trcstat_ptracer31_min        =   7.9627459725092129E-15
(PID.TID 0000.0001) %MON trcstat_ptracer31_mean       =   6.9461053860270336E-04
(PID.TID 0000.0001) %MON trcstat_ptracer31_sd         =   4.1110522208440007E-03
(PID.TID 0000.0001) %MON trcstat_ptracer31_del2       =   0.0000000000000000E+00
(PID.TID 0000.0001) %MON trcstat_ptracer32_max        =   8.7873194088565112E-03
(PID.TID 0000.0001) %MON trcstat_ptracer32_min        =   1.9906905878156784E-15
(PID.TID 0000.0001) %MON trcstat_ptracer32_mean       =   1.2447726009150035E-04
(PID.TID 0000.0001) %MON trcstat_ptracer32_sd         =   7.2142736402948523E-04
(PID.TID 0000.0001) %MON trcstat_ptracer32_del2       =   0.0000000000000000E+00
(PID.TID 0000.0001) %MON trcstat_ptracer33_max        =   1.2727468939504724E-01
(PID.TID 0000.0001) %MON trcstat_ptracer33_min        =   2.0051623598874057E-14
(PID.TID 0000.0001) %MON trcstat_ptracer33_mean       =   1.7266776949246504E-03
(PID.TID 0000.0001) %MON trcstat_ptracer33_sd         =   1.0243120417233574E-02
(PID.TID 0000.0001) %MON trcstat_ptracer33_del2       =   0.0000000000000000E+00
(PID.TID 0000.0001) // =======================================================
(PID.TID 0000.0001) // End MONITOR ptracers field statistics
(PID.TID 0000.0001) // =======================================================
 Computing Diagnostic #    156  TRAC01       Counter:       1   Parms: SMR     MR      
 Computing Diagnostic #    169  TRAC02       Counter:       1   Parms: SMR     MR      
 Computing Diagnostic #    182  TRAC03       Counter:       1   Parms: SMR     MR      
 Computing Diagnostic #    195  TRAC04       Counter:       1   Parms: SMR     MR      
 Computing Diagnostic #    208  TRAC05       Counter:       1   Parms: SMR     MR      
 Computing Diagnostic #    221  TRAC06       Counter:       1   Parms: SMR     MR      
 Computing Diagnostic #    234  TRAC07       Counter:       1   Parms: SMR     MR      
 Computing Diagnostic #    247  TRAC08       Counter:       1   Parms: SMR     MR      
 Computing Diagnostic #    260  TRAC09       Counter:       1   Parms: SMR     MR      
 Computing Diagnostic #    273  TRAC10       Counter:       1   Parms: SMR     MR      
 Computing Diagnostic #    286  TRAC11       Counter:       1   Parms: SMR     MR      
 Computing Diagnostic #    299  TRAC12       Counter:       1   Parms: SMR     MR      
 Computing Diagnostic #    312  TRAC13       Counter:       1   Parms: SMR     MR      
 Computing Diagnostic #    325  TRAC14       Counter:       1   Parms: SMR     MR      
 Computing Diagnostic #    338  TRAC15       Counter:       1   Parms: SMR     MR      
 Computing Diagnostic #    351  TRAC16       Counter:       1   Parms: SMR     MR      
 Computing Diagnostic #    364  TRAC17       Counter:       1   Parms: SMR     MR      
 Computing Diagnostic #    377  TRAC18       Counter:       1   Parms: SMR     MR      
 Computing Diagnostic #    390  TRAC19       Counter:       1   Parms: SMR     MR      
 Computing Diagnostic #    403  TRAC20       Counter:       1   Parms: SMR     MR      
 Computing Diagnostic #    416  TRAC21       Counter:       1   Parms: SMR     MR      
 Computing Diagnostic #    429  TRAC22       Counter:       1   Parms: SMR     MR      
 Computing Diagnostic #    442  TRAC23       Counter:       1   Parms: SMR     MR      
 Computing Diagnostic #    455  TRAC24       Counter:       1   Parms: SMR     MR      
 Computing Diagnostic #    468  TRAC25       Counter:       1   Parms: SMR     MR      
 Computing Diagnostic #    481  TRAC26       Counter:       1   Parms: SMR     MR      
 Computing Diagnostic #    494  TRAC27       Counter:       1   Parms: SMR     MR      
 Computing Diagnostic #    507  TRAC28       Counter:       1   Parms: SMR     MR      
 Computing Diagnostic #    520  TRAC29       Counter:       1   Parms: SMR     MR      
 Computing Diagnostic #    533  TRAC30       Counter:       1   Parms: SMR     MR      
 Computing Diagnostic #    589  PARF         Counter:       1   Parms: SM P    MR      
 Computing Diagnostic #    586  atten        Counter:       1   Parms: SM P    MR      
 Computing Diagnostic #    588  surfPAR      Counter:       1   Parms: SM P    MR      
 Computing Diagnostic #    587  exfPAR       Counter:       1   Parms: SM P    MR      
(PID.TID 0000.0001) %CHECKPOINT         4 ckptA
(PID.TID 0000.0001)   Seconds in section "ALL                    [THE_MODEL_MAIN]":
(PID.TID 0000.0001)           User time:   1.5700000000000001
(PID.TID 0000.0001)         System time:   8.9999999999999997E-002
(PID.TID 0000.0001)     Wall clock time:   2.2103219032287598
(PID.TID 0000.0001)          No. starts:           1
(PID.TID 0000.0001)           No. stops:           1
(PID.TID 0000.0001)   Seconds in section "INITIALISE_FIXED       [THE_MODEL_MAIN]":
(PID.TID 0000.0001)           User time:  0.77000000000000002
(PID.TID 0000.0001)         System time:   2.9999999999999999E-002
(PID.TID 0000.0001)     Wall clock time:   1.0443329811096191
(PID.TID 0000.0001)          No. starts:           1
(PID.TID 0000.0001)           No. stops:           1
(PID.TID 0000.0001)   Seconds in section "THE_MAIN_LOOP          [THE_MODEL_MAIN]":
(PID.TID 0000.0001)           User time:  0.80000000000000004
(PID.TID 0000.0001)         System time:   5.9999999999999998E-002
(PID.TID 0000.0001)     Wall clock time:   1.1614329814910889
(PID.TID 0000.0001)          No. starts:           1
(PID.TID 0000.0001)           No. stops:           1
(PID.TID 0000.0001)   Seconds in section "INITIALISE_VARIA    [THE_MAIN_LOOP]":
(PID.TID 0000.0001)           User time:   5.0000000000000044E-002
(PID.TID 0000.0001)         System time:   2.0000000000000004E-002
(PID.TID 0000.0001)     Wall clock time:  0.14187097549438477
(PID.TID 0000.0001)          No. starts:           1
(PID.TID 0000.0001)           No. stops:           1
(PID.TID 0000.0001)   Seconds in section "MAIN LOOP           [THE_MAIN_LOOP]":
(PID.TID 0000.0001)           User time:  0.75000000000000000
(PID.TID 0000.0001)         System time:   3.9999999999999994E-002
(PID.TID 0000.0001)     Wall clock time:   1.0195059776306152
(PID.TID 0000.0001)          No. starts:           1
(PID.TID 0000.0001)           No. stops:           1
(PID.TID 0000.0001)   Seconds in section "FORWARD_STEP        [THE_MAIN_LOOP]":
(PID.TID 0000.0001)           User time:  0.74999999999999978
(PID.TID 0000.0001)         System time:   3.9999999999999994E-002
(PID.TID 0000.0001)     Wall clock time:   1.0194129943847656
(PID.TID 0000.0001)          No. starts:           4
(PID.TID 0000.0001)           No. stops:           4
(PID.TID 0000.0001)   Seconds in section "DO_STATEVARS_DIAGS  [FORWARD_STEP]":
(PID.TID 0000.0001)           User time:   0.0000000000000000
(PID.TID 0000.0001)         System time:   0.0000000000000000
(PID.TID 0000.0001)     Wall clock time:   2.6471614837646484E-003
(PID.TID 0000.0001)          No. starts:           8
(PID.TID 0000.0001)           No. stops:           8
(PID.TID 0000.0001)   Seconds in section "LOAD_FIELDS_DRIVER  [FORWARD_STEP]":
(PID.TID 0000.0001)           User time:   1.0000000000000009E-002
(PID.TID 0000.0001)         System time:   0.0000000000000000
(PID.TID 0000.0001)     Wall clock time:   1.6852617263793945E-002
(PID.TID 0000.0001)          No. starts:           4
(PID.TID 0000.0001)           No. stops:           4
(PID.TID 0000.0001)   Seconds in section "EXF_GETFORCING     [LOAD_FLDS_DRIVER]":
(PID.TID 0000.0001)           User time:   0.0000000000000000
(PID.TID 0000.0001)         System time:   0.0000000000000000
(PID.TID 0000.0001)     Wall clock time:   3.5390853881835938E-003
(PID.TID 0000.0001)          No. starts:           4
(PID.TID 0000.0001)           No. stops:           4
(PID.TID 0000.0001)   Seconds in section "EXTERNAL_FLDS_LOAD [LOAD_FLDS_DRIVER]":
(PID.TID 0000.0001)           User time:   0.0000000000000000
(PID.TID 0000.0001)         System time:   0.0000000000000000
(PID.TID 0000.0001)     Wall clock time:   1.2375593185424805E-002
(PID.TID 0000.0001)          No. starts:           4
(PID.TID 0000.0001)           No. stops:           4
(PID.TID 0000.0001)   Seconds in section "DO_ATMOSPHERIC_PHYS [FORWARD_STEP]":
(PID.TID 0000.0001)           User time:   0.0000000000000000
(PID.TID 0000.0001)         System time:   0.0000000000000000
(PID.TID 0000.0001)     Wall clock time:   7.8916549682617188E-005
(PID.TID 0000.0001)          No. starts:           4
(PID.TID 0000.0001)           No. stops:           4
(PID.TID 0000.0001)   Seconds in section "DO_OCEANIC_PHYS     [FORWARD_STEP]":
(PID.TID 0000.0001)           User time:   2.0000000000000018E-002
(PID.TID 0000.0001)         System time:   0.0000000000000000
(PID.TID 0000.0001)     Wall clock time:   1.0159492492675781E-002
(PID.TID 0000.0001)          No. starts:           4
(PID.TID 0000.0001)           No. stops:           4
(PID.TID 0000.0001)   Seconds in section "KPP_CALC [DO_OCEANIC_PHYS]":
(PID.TID 0000.0001)           User time:   2.0000000000000018E-002
(PID.TID 0000.0001)         System time:   0.0000000000000000
(PID.TID 0000.0001)     Wall clock time:   8.8639259338378906E-003
(PID.TID 0000.0001)          No. starts:           4
(PID.TID 0000.0001)           No. stops:           4
(PID.TID 0000.0001)   Seconds in section "GCHEM_CALC_TENDENCY [FORWARD_STEP]":
(PID.TID 0000.0001)           User time:   0.0000000000000000
(PID.TID 0000.0001)         System time:   0.0000000000000000
(PID.TID 0000.0001)     Wall clock time:   7.6293945312500000E-005
(PID.TID 0000.0001)          No. starts:           4
(PID.TID 0000.0001)           No. stops:           4
(PID.TID 0000.0001)   Seconds in section "THERMODYNAMICS      [FORWARD_STEP]":
(PID.TID 0000.0001)           User time:  0.11999999999999966
(PID.TID 0000.0001)         System time:   0.0000000000000000
(PID.TID 0000.0001)     Wall clock time:  0.12501907348632812
(PID.TID 0000.0001)          No. starts:           4
(PID.TID 0000.0001)           No. stops:           4
(PID.TID 0000.0001)   Seconds in section "TRC_CORRECTION_STEP [FORWARD_STEP]":
(PID.TID 0000.0001)           User time:   0.0000000000000000
(PID.TID 0000.0001)         System time:   0.0000000000000000
(PID.TID 0000.0001)     Wall clock time:   2.0096302032470703E-003
(PID.TID 0000.0001)          No. starts:           4
(PID.TID 0000.0001)           No. stops:           4
(PID.TID 0000.0001)   Seconds in section "GCHEM_FORCING_SEP  [FORWARD_STEP]":
(PID.TID 0000.0001)           User time:   6.0000000000000053E-002
(PID.TID 0000.0001)         System time:   0.0000000000000000
(PID.TID 0000.0001)     Wall clock time:   7.5838088989257812E-002
(PID.TID 0000.0001)          No. starts:           4
(PID.TID 0000.0001)           No. stops:           4
(PID.TID 0000.0001)   Seconds in section "DARWIN_FORCING [GCHEM_FORCING_SEP]":
(PID.TID 0000.0001)           User time:   6.0000000000000053E-002
(PID.TID 0000.0001)         System time:   0.0000000000000000
(PID.TID 0000.0001)     Wall clock time:   7.0523977279663086E-002
(PID.TID 0000.0001)          No. starts:           4
(PID.TID 0000.0001)           No. stops:           4
(PID.TID 0000.0001)   Seconds in section "DARWIN_LIGHT [DARWIN_FORCING]":
(PID.TID 0000.0001)           User time:   0.0000000000000000
(PID.TID 0000.0001)         System time:   0.0000000000000000
(PID.TID 0000.0001)     Wall clock time:   5.5193901062011719E-004
(PID.TID 0000.0001)          No. starts:           4
(PID.TID 0000.0001)           No. stops:           4
(PID.TID 0000.0001)   Seconds in section "DARWIN_FE_CHEM1 [DARWIN_FORCING]":
(PID.TID 0000.0001)           User time:   0.0000000000000000
(PID.TID 0000.0001)         System time:   0.0000000000000000
(PID.TID 0000.0001)     Wall clock time:   1.5020370483398438E-004
(PID.TID 0000.0001)          No. starts:           4
(PID.TID 0000.0001)           No. stops:           4
(PID.TID 0000.0001)   Seconds in section "DARWIN_MODEL [DARWIN_FORCING]":
(PID.TID 0000.0001)           User time:   2.0000000000000018E-002
(PID.TID 0000.0001)         System time:   0.0000000000000000
(PID.TID 0000.0001)     Wall clock time:   2.6056051254272461E-002
(PID.TID 0000.0001)          No. starts:           4
(PID.TID 0000.0001)           No. stops:           4
(PID.TID 0000.0001)   Seconds in section "DARWIN_GRAZING [DARWIN_FORCING]":
(PID.TID 0000.0001)           User time:   4.0000000000000036E-002
(PID.TID 0000.0001)         System time:   0.0000000000000000
(PID.TID 0000.0001)     Wall clock time:   3.7889957427978516E-002
(PID.TID 0000.0001)          No. starts:           4
(PID.TID 0000.0001)           No. stops:           4
(PID.TID 0000.0001)   Seconds in section "DARWIN_SINKING [DARWIN_FORCING]":
(PID.TID 0000.0001)           User time:   0.0000000000000000
(PID.TID 0000.0001)         System time:   0.0000000000000000
(PID.TID 0000.0001)     Wall clock time:   5.0270557403564453E-003
(PID.TID 0000.0001)          No. starts:           4
(PID.TID 0000.0001)           No. stops:           4
(PID.TID 0000.0001)   Seconds in section "DIAGS_FILL [DARWIN_FORCING]":
(PID.TID 0000.0001)           User time:   0.0000000000000000
(PID.TID 0000.0001)         System time:   0.0000000000000000
(PID.TID 0000.0001)     Wall clock time:   1.3422966003417969E-004
(PID.TID 0000.0001)          No. starts:           4
(PID.TID 0000.0001)           No. stops:           4
(PID.TID 0000.0001)   Seconds in section "DARWIN_FE_CHEM1 [GCHEM_FORCING_SEP]":
(PID.TID 0000.0001)           User time:   0.0000000000000000
(PID.TID 0000.0001)         System time:   0.0000000000000000
(PID.TID 0000.0001)     Wall clock time:   1.6403198242187500E-004
(PID.TID 0000.0001)          No. starts:           4
(PID.TID 0000.0001)           No. stops:           4
(PID.TID 0000.0001)   Seconds in section "BLOCKING_EXCHANGES  [FORWARD_STEP]":
(PID.TID 0000.0001)           User time:   2.0000000000000018E-002
(PID.TID 0000.0001)         System time:   0.0000000000000000
(PID.TID 0000.0001)     Wall clock time:   7.0357322692871094E-003
(PID.TID 0000.0001)          No. starts:           4
(PID.TID 0000.0001)           No. stops:           4
(PID.TID 0000.0001)   Seconds in section "DO_STATEVARS_TAVE   [FORWARD_STEP]":
(PID.TID 0000.0001)           User time:   0.0000000000000000
(PID.TID 0000.0001)         System time:   0.0000000000000000
(PID.TID 0000.0001)     Wall clock time:   3.8313865661621094E-004
(PID.TID 0000.0001)          No. starts:           4
(PID.TID 0000.0001)           No. stops:           4
(PID.TID 0000.0001)   Seconds in section "MONITOR             [FORWARD_STEP]":
(PID.TID 0000.0001)           User time:   0.0000000000000000
(PID.TID 0000.0001)         System time:   0.0000000000000000
(PID.TID 0000.0001)     Wall clock time:   5.9537887573242188E-003
(PID.TID 0000.0001)          No. starts:           4
(PID.TID 0000.0001)           No. stops:           4
(PID.TID 0000.0001)   Seconds in section "DO_THE_MODEL_IO     [FORWARD_STEP]":
(PID.TID 0000.0001)           User time:  0.50000000000000022
(PID.TID 0000.0001)         System time:   3.9999999999999994E-002
(PID.TID 0000.0001)     Wall clock time:  0.71053290367126465
(PID.TID 0000.0001)          No. starts:           4
(PID.TID 0000.0001)           No. stops:           4
(PID.TID 0000.0001)   Seconds in section "DO_WRITE_PICKUP     [FORWARD_STEP]":
(PID.TID 0000.0001)           User time:   1.0000000000000009E-002
(PID.TID 0000.0001)         System time:   0.0000000000000000
(PID.TID 0000.0001)     Wall clock time:   6.1625242233276367E-002
(PID.TID 0000.0001)          No. starts:           4
(PID.TID 0000.0001)           No. stops:           4
(PID.TID 0000.0001) // ======================================================
(PID.TID 0000.0001) // Tile <-> Tile communication statistics
(PID.TID 0000.0001) // ======================================================
(PID.TID 0000.0001) // o Tile number: 000001
(PID.TID 0000.0001) //         No. X exchanges =              0
(PID.TID 0000.0001) //            Max. X spins =              0
(PID.TID 0000.0001) //            Min. X spins =     1000000000
(PID.TID 0000.0001) //          Total. X spins =              0
(PID.TID 0000.0001) //            Avg. X spins =       0.00E+00
(PID.TID 0000.0001) //         No. Y exchanges =              0
(PID.TID 0000.0001) //            Max. Y spins =              0
(PID.TID 0000.0001) //            Min. Y spins =     1000000000
(PID.TID 0000.0001) //          Total. Y spins =              0
(PID.TID 0000.0001) //            Avg. Y spins =       0.00E+00
(PID.TID 0000.0001) // o Thread number: 000001
(PID.TID 0000.0001) //            No. barriers =           8658
(PID.TID 0000.0001) //      Max. barrier spins =              1
(PID.TID 0000.0001) //      Min. barrier spins =              1
(PID.TID 0000.0001) //     Total barrier spins =           8658
(PID.TID 0000.0001) //      Avg. barrier spins =       1.00E+00
PROGRAM MAIN: Execution ended Normally
