(PID.TID 0000.0001) 
(PID.TID 0000.0001) // ======================================================
(PID.TID 0000.0001) //                      MITgcm UV
(PID.TID 0000.0001) //                      =========
(PID.TID 0000.0001) // ======================================================
(PID.TID 0000.0001) // execution environment starting up...
(PID.TID 0000.0001) 
(PID.TID 0000.0001) // Build user:        jahn
(PID.TID 0000.0001) // Build host:        saramago.mit.edu
(PID.TID 0000.0001) // Build date:        Wed Jun 12 12:26:12 EDT 2013
(PID.TID 0000.0001) 
(PID.TID 0000.0001) // =======================================================
(PID.TID 0000.0001) // Execution Environment parameter file "eedata"
(PID.TID 0000.0001) // =======================================================
(PID.TID 0000.0001) ># Example "eedata" file
(PID.TID 0000.0001) ># Lines beginning "#" are comments
(PID.TID 0000.0001) ># nTx - No. threads per process in X
(PID.TID 0000.0001) ># nTy - No. threads per process in Y
(PID.TID 0000.0001) > &EEPARMS
(PID.TID 0000.0001) > nTx=1,nTy=1
(PID.TID 0000.0001) > /
(PID.TID 0000.0001) ># Note: Some systems use & as the
(PID.TID 0000.0001) ># namelist terminator. Other systems
(PID.TID 0000.0001) ># use a / character (as shown here).
(PID.TID 0000.0001) 
(PID.TID 0000.0001) // =======================================================
(PID.TID 0000.0001) // Computational Grid Specification ( see files "SIZE.h" )
(PID.TID 0000.0001) //                                  ( and "eedata"       )
(PID.TID 0000.0001) // =======================================================
(PID.TID 0000.0001)      nPx =    1 ; /* No. processes in X */
(PID.TID 0000.0001)      nPy =    1 ; /* No. processes in Y */
(PID.TID 0000.0001)      nSx =    1 ; /* No. tiles in X per process */
(PID.TID 0000.0001)      nSy =    1 ; /* No. tiles in Y per process */
(PID.TID 0000.0001)      sNx =    1 ; /* Tile size in X */
(PID.TID 0000.0001)      sNy =    1 ; /* Tile size in Y */
(PID.TID 0000.0001)      OLx =    2 ; /* Tile overlap distance in X */
(PID.TID 0000.0001)      OLy =    2 ; /* Tile overlap distance in Y */
(PID.TID 0000.0001)      nTx =    1 ; /* No. threads in X per process */
(PID.TID 0000.0001)      nTy =    1 ; /* No. threads in Y per process */
(PID.TID 0000.0001)       Nr =   35 ; /* No. levels in the vertical   */
(PID.TID 0000.0001)       Nx =    1 ; /* Total domain size in X ( = nPx*nSx*sNx ) */
(PID.TID 0000.0001)       Ny =    1 ; /* Total domain size in Y ( = nPy*nSy*sNy ) */
(PID.TID 0000.0001)   nTiles =    1 ; /* Total no. tiles per process ( = nSx*nSy ) */
(PID.TID 0000.0001)   nProcs =    1 ; /* Total no. processes ( = nPx*nPy ) */
(PID.TID 0000.0001) nThreads =    1 ; /* Total no. threads per process ( = nTx*nTy ) */
(PID.TID 0000.0001) usingMPI =    F ; /* Flag used to control whether MPI is in use */
(PID.TID 0000.0001)                   /*  note: To execute a program with MPI calls */
(PID.TID 0000.0001)                   /*  it must be launched appropriately e.g     */
(PID.TID 0000.0001)                   /*  "mpirun -np 64 ......"                    */
(PID.TID 0000.0001) useCoupler=    F ;/* Flag used to control communications with   */
(PID.TID 0000.0001)                   /*  other model components, through a coupler */
(PID.TID 0000.0001) debugMode =    F ; /* print debug msg. (sequence of S/R calls)  */
(PID.TID 0000.0001) printMapIncludesZeros=    F ; /* print zeros in Std.Output maps */
(PID.TID 0000.0001) maxLengthPrt1D=   65 /* maxLength of 1D array printed to StdOut */
(PID.TID 0000.0001) 
(PID.TID 0000.0001) // ======================================================
(PID.TID 0000.0001) // Mapping of tiles to threads
(PID.TID 0000.0001) // ======================================================
(PID.TID 0000.0001) // -o- Thread   1, tiles (   1:   1,   1:   1)
(PID.TID 0000.0001) 
(PID.TID 0000.0001) // ======================================================
(PID.TID 0000.0001) // Tile <-> Tile connectvity table
(PID.TID 0000.0001) // ======================================================
(PID.TID 0000.0001) // Tile number: 000001 (process no. = 000000)
(PID.TID 0000.0001) //        WEST: Tile = 000001, Process = 000000, Comm = put
(PID.TID 0000.0001) //                bi = 000001, bj = 000001
(PID.TID 0000.0001) //        EAST: Tile = 000001, Process = 000000, Comm = put
(PID.TID 0000.0001) //                bi = 000001, bj = 000001
(PID.TID 0000.0001) //       SOUTH: Tile = 000001, Process = 000000, Comm = put
(PID.TID 0000.0001) //                bi = 000001, bj = 000001
(PID.TID 0000.0001) //       NORTH: Tile = 000001, Process = 000000, Comm = put
(PID.TID 0000.0001) //                bi = 000001, bj = 000001
(PID.TID 0000.0001) 
(PID.TID 0000.0001)  INI_PARMS: opening model parameter file "data"
(PID.TID 0000.0001)  OPEN_COPY_DATA_FILE: opening file data
(PID.TID 0000.0001) // =======================================================
(PID.TID 0000.0001) // Parameter file "data"
(PID.TID 0000.0001) // =======================================================
(PID.TID 0000.0001) >#
(PID.TID 0000.0001) ># ******************************
(PID.TID 0000.0001) ># Model parameters
(PID.TID 0000.0001) ># Continuous equation parameters
(PID.TID 0000.0001) ># ******************************
(PID.TID 0000.0001) >&PARM01
(PID.TID 0000.0001) >tRef= 26.5, 26.1, 26., 25.5, 25.4, 24.9, 24.5, 24.0, 23.7,
(PID.TID 0000.0001) >      23.3, 23.1, 22.8, 22.5, 22.1, 21.6, 20.6, 19.5, 18.4,
(PID.TID 0000.0001) >      17.3, 16.6, 15.5, 14.6, 13.8, 13.1, 11.6, 10.1, 7.7,
(PID.TID 0000.0001) >      5.3, 4.1, 3.7, 3.7, 3.4, 3.0, 2.8, 2.6,
(PID.TID 0000.0001) >sRef= 35*35.00,
(PID.TID 0000.0001) >no_slip_sides=.false.,
(PID.TID 0000.0001) >no_slip_bottom=.TRUE.,
(PID.TID 0000.0001) >viscAz=0.e0,
(PID.TID 0000.0001) >viscAh=0.e0,
(PID.TID 0000.0001) >diffKhT=1.E2,
(PID.TID 0000.0001) >diffKzT=1.E-4,
(PID.TID 0000.0001) >diffKhS=0.D0,
(PID.TID 0000.0001) >diffKzS=0.D0,
(PID.TID 0000.0001) >beta=1.E-11,
(PID.TID 0000.0001) >tAlpha=2.E-4,
(PID.TID 0000.0001) >sBeta =7.4E-4,
(PID.TID 0000.0001) >gravity=9.81,
(PID.TID 0000.0001) >gBaro=9.81,
(PID.TID 0000.0001) >rigidLid=.TRUE.,
(PID.TID 0000.0001) >implicitFreeSurface=.false.,
(PID.TID 0000.0001) >eosType='JMD95Z',
(PID.TID 0000.0001) >saltStepping=.FALSE.,
(PID.TID 0000.0001) >tempStepping=.TRUE.,
(PID.TID 0000.0001) >tempAdvection=.TRUE.,
(PID.TID 0000.0001) >momStepping=.FALSE.,
(PID.TID 0000.0001) >implicitDiffusion=.true.,
(PID.TID 0000.0001) >implicitViscosity=.false.,
(PID.TID 0000.0001) >allowFreezing=.false.,
(PID.TID 0000.0001) >useSingleCpuIO=.TRUE.,
(PID.TID 0000.0001) >useCDscheme=.FALSE.,
(PID.TID 0000.0001) >tempAdvScheme = 3,
(PID.TID 0000.0001) >saltAdvScheme = 3,
(PID.TID 0000.0001) >writeBinaryPrec= 64,
(PID.TID 0000.0001) >/
(PID.TID 0000.0001) >
(PID.TID 0000.0001) ># **************************
(PID.TID 0000.0001) ># Elliptic solver parameters
(PID.TID 0000.0001) ># **************************
(PID.TID 0000.0001) >&PARM02
(PID.TID 0000.0001) >cg2dMaxIters=300,
(PID.TID 0000.0001) >cg2dTargetResidual=1.E-7,
(PID.TID 0000.0001) >/
(PID.TID 0000.0001) >
(PID.TID 0000.0001) ># ************************
(PID.TID 0000.0001) ># Time stepping parameters
(PID.TID 0000.0001) ># ************************
(PID.TID 0000.0001) >&PARM03
(PID.TID 0000.0001) > nIter0=0,
(PID.TID 0000.0001) >#nTimeSteps=86400,
(PID.TID 0000.0001) > nTimeSteps=4,
(PID.TID 0000.0001) > deltaTmom= 3600.,
(PID.TID 0000.0001) > deltaTtracer= 3600.,
(PID.TID 0000.0001) > deltaTClock = 3600.,
(PID.TID 0000.0001) > cAdjFreq    = -1.,
(PID.TID 0000.0001) > abEps=0.1,
(PID.TID 0000.0001) > pChkptFreq  = 31104000.0,
(PID.TID 0000.0001) > chkptFreq   = 31104000.0,
(PID.TID 0000.0001) > dumpFreq = 3600.,
(PID.TID 0000.0001) > dumpInitAndLast = .TRUE.,
(PID.TID 0000.0001) > taveFreq    = 2592000.,
(PID.TID 0000.0001) >#monitorFreq = 2592000.,
(PID.TID 0000.0001) > monitorFreq = 1.,
(PID.TID 0000.0001) > tauThetaClimRelax=259200.,
(PID.TID 0000.0001) > tauSaltClimRelax=0.,
(PID.TID 0000.0001) > periodicExternalForcing=.TRUE.,
(PID.TID 0000.0001) > externForcingPeriod=2592000.,
(PID.TID 0000.0001) > externForcingCycle=31104000.,
(PID.TID 0000.0001) >/
(PID.TID 0000.0001) >
(PID.TID 0000.0001) ># *******************
(PID.TID 0000.0001) ># Gridding parameters
(PID.TID 0000.0001) ># *******************
(PID.TID 0000.0001) >&PARM04
(PID.TID 0000.0001) >usingCartesianGrid=.FALSE.,
(PID.TID 0000.0001) >usingSphericalPolarGrid=.TRUE.,
(PID.TID 0000.0001) >delX=1*1.E0,
(PID.TID 0000.0001) >delY=1*1.E0,
(PID.TID 0000.0001) >delZ=14*10, 5*15, 4*20, 2*50, 100, 2*150, 200, 300, 3*400, 2*500,
(PID.TID 0000.0001) >xgOrigin=335,
(PID.TID 0000.0001) >ygOrigin=-18.,
(PID.TID 0000.0001) >/
(PID.TID 0000.0001) >
(PID.TID 0000.0001) ># **********
(PID.TID 0000.0001) ># Data Files
(PID.TID 0000.0001) ># **********
(PID.TID 0000.0001) >&PARM05
(PID.TID 0000.0001) >bathyFile=       '../input/input/bathyneg.bin',
(PID.TID 0000.0001) >hydrogThetaFile= '../input/input/loc1_temp_janprof.bin',
(PID.TID 0000.0001) >hydrogSaltFile=  '../input/input/salt_uniform.bin',
(PID.TID 0000.0001) >zonalWindFile=   '',
(PID.TID 0000.0001) >meridWindFile=   '',
(PID.TID 0000.0001) >thetaClimFile=   '../input/input/loc1_temp_monsurf.bin',
(PID.TID 0000.0001) >saltClimFile=    '',
(PID.TID 0000.0001) >surfQFile=       '',
(PID.TID 0000.0001) >EmPmRFile=       '',
(PID.TID 0000.0001) >/
(PID.TID 0000.0001) 
(PID.TID 0000.0001)  INI_PARMS ; starts to read PARM01
(PID.TID 0000.0001)  INI_PARMS ; read PARM01 : OK
(PID.TID 0000.0001)  INI_PARMS ; starts to read PARM02
(PID.TID 0000.0001)  INI_PARMS ; read PARM02 : OK
(PID.TID 0000.0001)  INI_PARMS ; starts to read PARM03
(PID.TID 0000.0001)  INI_PARMS ; read PARM03 : OK
(PID.TID 0000.0001)  INI_PARMS ; starts to read PARM04
(PID.TID 0000.0001)  INI_PARMS ; read PARM04 : OK
(PID.TID 0000.0001)  INI_PARMS ; starts to read PARM05
(PID.TID 0000.0001)  INI_PARMS ; read PARM05 : OK
(PID.TID 0000.0001)  INI_PARMS: finished reading file "data"
(PID.TID 0000.0001)  PACKAGES_BOOT: opening data.pkg
(PID.TID 0000.0001)  OPEN_COPY_DATA_FILE: opening file data.pkg
(PID.TID 0000.0001) // =======================================================
(PID.TID 0000.0001) // Parameter file "data.pkg"
(PID.TID 0000.0001) // =======================================================
(PID.TID 0000.0001) ># Packages
(PID.TID 0000.0001) > &PACKAGES
(PID.TID 0000.0001) > usePTRACERS=.TRUE.
(PID.TID 0000.0001) > useGCHEM=.TRUE.,
(PID.TID 0000.0001) > useEXF=.TRUE.
(PID.TID 0000.0001) > useCAL=.TRUE.
(PID.TID 0000.0001) > useKPP=.FALSE.,
(PID.TID 0000.0001) > useMNC=.TRUE.,
(PID.TID 0000.0001) > useDIAGNOSTICS=.TRUE.,
(PID.TID 0000.0001) > /
(PID.TID 0000.0001) 
(PID.TID 0000.0001)  PACKAGES_BOOT: finished reading data.pkg
(PID.TID 0000.0001)  MNC_READPARMS: opening file 'data.mnc'
(PID.TID 0000.0001)  OPEN_COPY_DATA_FILE: opening file data.mnc
(PID.TID 0000.0001) // =======================================================
(PID.TID 0000.0001) // Parameter file "data.mnc"
(PID.TID 0000.0001) // =======================================================
(PID.TID 0000.0001) ># Example "data.mnc" file
(PID.TID 0000.0001) ># Lines beginning "#" are comments
(PID.TID 0000.0001) > &MNC_01
(PID.TID 0000.0001) ># mnc_echo_gvtypes=.FALSE.,
(PID.TID 0000.0001) ># mnc_use_indir=.FALSE.,
(PID.TID 0000.0001) ># mnc_use_outdir=.TRUE.,
(PID.TID 0000.0001) > mnc_outdir_str='dar1d_',
(PID.TID 0000.0001) > mnc_outdir_date=.TRUE.,
(PID.TID 0000.0001) > monitor_mnc=.FALSE.,
(PID.TID 0000.0001) > snapshot_mnc=.TRUE.,
(PID.TID 0000.0001) > timeave_mnc=.TRUE.,
(PID.TID 0000.0001) > pickup_read_mnc=.FALSE.,
(PID.TID 0000.0001) > pickup_write_mnc=.FALSE.,
(PID.TID 0000.0001) > /
(PID.TID 0000.0001) ># Note: Some systems use & as the
(PID.TID 0000.0001) ># namelist terminator. Other systems
(PID.TID 0000.0001) ># use a / character.
(PID.TID 0000.0001) 
(PID.TID 0000.0001)  MNC_READPARMS: finished reading data.mnc
(PID.TID 0000.0001) CAL_READPARMS: opening data.cal
(PID.TID 0000.0001)  OPEN_COPY_DATA_FILE: opening file data.cal
(PID.TID 0000.0001) // =======================================================
(PID.TID 0000.0001) // Parameter file "data.cal"
(PID.TID 0000.0001) // =======================================================
(PID.TID 0000.0001) >#
(PID.TID 0000.0001) ># *******************
(PID.TID 0000.0001) ># Calendar Parameters
(PID.TID 0000.0001) ># *******************
(PID.TID 0000.0001) > &CAL_NML
(PID.TID 0000.0001) > TheCalendar='model',
(PID.TID 0000.0001) > startDate_1=19920101,
(PID.TID 0000.0001) > startDate_2=000000,
(PID.TID 0000.0001) > calendarDumps = .TRUE.
(PID.TID 0000.0001) > /
(PID.TID 0000.0001) 
(PID.TID 0000.0001) CAL_READPARMS: finished reading data.cal
(PID.TID 0000.0001) EXF_READPARMS: opening data.exf
(PID.TID 0000.0001)  OPEN_COPY_DATA_FILE: opening file data.exf
(PID.TID 0000.0001) // =======================================================
(PID.TID 0000.0001) // Parameter file "data.exf"
(PID.TID 0000.0001) // =======================================================
(PID.TID 0000.0001) ># *********************
(PID.TID 0000.0001) ># External Forcing Data
(PID.TID 0000.0001) ># *********************
(PID.TID 0000.0001) >#
(PID.TID 0000.0001) > &EXF_NML_01
(PID.TID 0000.0001) > exf_albedo        = 0.15,
(PID.TID 0000.0001) > exf_iprec         = 32,
(PID.TID 0000.0001) > exf_yftype        = 'RL',
(PID.TID 0000.0001) > useExfYearlyFields= .TRUE.,
(PID.TID 0000.0001) > twoDigitYear      = .TRUE.,
(PID.TID 0000.0001) > useExfCheckRange  = .FALSE.,
(PID.TID 0000.0001) > /
(PID.TID 0000.0001) >#
(PID.TID 0000.0001) > &EXF_NML_02
(PID.TID 0000.0001) > /
(PID.TID 0000.0001) >#
(PID.TID 0000.0001) > &EXF_NML_03
(PID.TID 0000.0001) > /
(PID.TID 0000.0001) >#
(PID.TID 0000.0001) > &EXF_NML_04
(PID.TID 0000.0001) > /
(PID.TID 0000.0001) >#
(PID.TID 0000.0001) > &EXF_NML_OBCS
(PID.TID 0000.0001) > /
(PID.TID 0000.0001) 
(PID.TID 0000.0001) EXF_READPARMS: reading EXF_NML_01
(PID.TID 0000.0001) EXF_READPARMS: reading EXF_NML_02
(PID.TID 0000.0001) EXF_READPARMS: reading EXF_NML_03
(PID.TID 0000.0001) EXF_READPARMS: finished reading data.exf
(PID.TID 0000.0001)  PTRACERS_READPARMS: opening data.ptracers
(PID.TID 0000.0001)  OPEN_COPY_DATA_FILE: opening file data.ptracers
(PID.TID 0000.0001) // =======================================================
(PID.TID 0000.0001) // Parameter file "data.ptracers"
(PID.TID 0000.0001) // =======================================================
(PID.TID 0000.0001) > &PTRACERS_PARM01
(PID.TID 0000.0001) > PTRACERS_numInUse= 98,
(PID.TID 0000.0001) > PTRACERS_Iter0= 0,
(PID.TID 0000.0001) > PTRACERS_advScheme= 98*33,
(PID.TID 0000.0001) > PTRACERS_diffKh=    98*0.E3,
(PID.TID 0000.0001) > PTRACERS_diffKr=    98*1.E-5,
(PID.TID 0000.0001) > PTRACERS_useGMRedi= 98*.FALSE. ,
(PID.TID 0000.0001) > PTRACERS_useKPP=    98*.FALSE. ,
(PID.TID 0000.0001) >#
(PID.TID 0000.0001) > PTRACERS_names(1)= 'DIC',
(PID.TID 0000.0001) > PTRACERS_names(2)= 'NH4',
(PID.TID 0000.0001) > PTRACERS_names(3)= 'NO2',
(PID.TID 0000.0001) > PTRACERS_names(4)= 'NO3',
(PID.TID 0000.0001) > PTRACERS_names(5)= 'PO4',
(PID.TID 0000.0001) > PTRACERS_names(6)= 'SiO2',
(PID.TID 0000.0001) > PTRACERS_names(7)= 'FeT',
(PID.TID 0000.0001) > PTRACERS_names(8)= 'DOC',
(PID.TID 0000.0001) > PTRACERS_names(9)= 'DON',
(PID.TID 0000.0001) > PTRACERS_names(10)= 'DOP',
(PID.TID 0000.0001) > PTRACERS_names(11)= 'DOFe',
(PID.TID 0000.0001) > PTRACERS_names(12)= 'POC',
(PID.TID 0000.0001) > PTRACERS_names(13)= 'PON',
(PID.TID 0000.0001) > PTRACERS_names(14)= 'POP',
(PID.TID 0000.0001) > PTRACERS_names(15)= 'POSi',
(PID.TID 0000.0001) > PTRACERS_names(16)= 'POFe',
(PID.TID 0000.0001) > PTRACERS_names(17)= 'PIC',
(PID.TID 0000.0001) > PTRACERS_names(18)= 'CDOM',
(PID.TID 0000.0001) > PTRACERS_names(19)= 'c01',
(PID.TID 0000.0001) > PTRACERS_names(20)= 'c02',
(PID.TID 0000.0001) > PTRACERS_names(21)= 'c03',
(PID.TID 0000.0001) > PTRACERS_names(22)= 'c04',
(PID.TID 0000.0001) > PTRACERS_names(23)= 'c05',
(PID.TID 0000.0001) > PTRACERS_names(24)= 'c06',
(PID.TID 0000.0001) > PTRACERS_names(25)= 'c07',
(PID.TID 0000.0001) > PTRACERS_names(26)= 'c08',
(PID.TID 0000.0001) > PTRACERS_names(27)= 'c09',
(PID.TID 0000.0001) > PTRACERS_names(28)= 'c10',
(PID.TID 0000.0001) > PTRACERS_names(29)= 'c11',
(PID.TID 0000.0001) > PTRACERS_names(30)= 'c12',
(PID.TID 0000.0001) > PTRACERS_names(31)= 'c13',
(PID.TID 0000.0001) > PTRACERS_names(32)= 'c14',
(PID.TID 0000.0001) > PTRACERS_names(33)= 'c15',
(PID.TID 0000.0001) > PTRACERS_names(34)= 'c16',
(PID.TID 0000.0001) > PTRACERS_names(35)= 'c17',
(PID.TID 0000.0001) > PTRACERS_names(36)= 'c18',
(PID.TID 0000.0001) > PTRACERS_names(37)= 'c19',
(PID.TID 0000.0001) > PTRACERS_names(38)= 'c20',
(PID.TID 0000.0001) > PTRACERS_names(39)= 'c21',
(PID.TID 0000.0001) > PTRACERS_names(40)= 'c22',
(PID.TID 0000.0001) > PTRACERS_names(41)= 'c23',
(PID.TID 0000.0001) > PTRACERS_names(42)= 'c24',
(PID.TID 0000.0001) > PTRACERS_names(43)= 'c25',
(PID.TID 0000.0001) > PTRACERS_names(44)= 'c26',
(PID.TID 0000.0001) > PTRACERS_names(45)= 'c27',
(PID.TID 0000.0001) > PTRACERS_names(46)= 'c28',
(PID.TID 0000.0001) > PTRACERS_names(47)= 'c29',
(PID.TID 0000.0001) > PTRACERS_names(48)= 'c30',
(PID.TID 0000.0001) > PTRACERS_names(49)= 'c31',
(PID.TID 0000.0001) > PTRACERS_names(50)= 'c32',
(PID.TID 0000.0001) > PTRACERS_names(51)= 'c33',
(PID.TID 0000.0001) > PTRACERS_names(52)= 'c34',
(PID.TID 0000.0001) > PTRACERS_names(53)= 'c35',
(PID.TID 0000.0001) > PTRACERS_names(54)= 'c36',
(PID.TID 0000.0001) > PTRACERS_names(55)= 'c37',
(PID.TID 0000.0001) > PTRACERS_names(56)= 'c38',
(PID.TID 0000.0001) > PTRACERS_names(57)= 'c39',
(PID.TID 0000.0001) > PTRACERS_names(58)= 'c40',
(PID.TID 0000.0001) > PTRACERS_names(59)= 'c41',
(PID.TID 0000.0001) > PTRACERS_names(60)= 'c42',
(PID.TID 0000.0001) > PTRACERS_names(61)= 'c43',
(PID.TID 0000.0001) > PTRACERS_names(62)= 'c44',
(PID.TID 0000.0001) > PTRACERS_names(63)= 'c45',
(PID.TID 0000.0001) > PTRACERS_names(64)= 'c46',
(PID.TID 0000.0001) > PTRACERS_names(65)= 'c47',
(PID.TID 0000.0001) > PTRACERS_names(66)= 'c48',
(PID.TID 0000.0001) > PTRACERS_names(67)= 'c49',
(PID.TID 0000.0001) > PTRACERS_names(68)= 'c50',
(PID.TID 0000.0001) > PTRACERS_names(69)= 'c51',
(PID.TID 0000.0001) > PTRACERS_names(70)= 'c52',
(PID.TID 0000.0001) > PTRACERS_names(71)= 'c53',
(PID.TID 0000.0001) > PTRACERS_names(72)= 'c54',
(PID.TID 0000.0001) > PTRACERS_names(73)= 'c55',
(PID.TID 0000.0001) > PTRACERS_names(74)= 'c56',
(PID.TID 0000.0001) > PTRACERS_names(75)= 'c57',
(PID.TID 0000.0001) > PTRACERS_names(76)= 'c58',
(PID.TID 0000.0001) > PTRACERS_names(77)= 'c59',
(PID.TID 0000.0001) > PTRACERS_names(78)= 'c60',
(PID.TID 0000.0001) > PTRACERS_names(79)= 'c61',
(PID.TID 0000.0001) > PTRACERS_names(80)= 'c62',
(PID.TID 0000.0001) > PTRACERS_names(81)= 'c63',
(PID.TID 0000.0001) > PTRACERS_names(82)= 'c64',
(PID.TID 0000.0001) > PTRACERS_names(83)= 'c65',
(PID.TID 0000.0001) > PTRACERS_names(84)= 'c66',
(PID.TID 0000.0001) > PTRACERS_names(85)= 'c67',
(PID.TID 0000.0001) > PTRACERS_names(86)= 'c68',
(PID.TID 0000.0001) > PTRACERS_names(87)= 'c69',
(PID.TID 0000.0001) > PTRACERS_names(88)= 'c70',
(PID.TID 0000.0001) > PTRACERS_names(89)= 'c71',
(PID.TID 0000.0001) > PTRACERS_names(90)= 'c72',
(PID.TID 0000.0001) > PTRACERS_names(91)= 'c73',
(PID.TID 0000.0001) > PTRACERS_names(92)= 'c74',
(PID.TID 0000.0001) > PTRACERS_names(93)= 'c75',
(PID.TID 0000.0001) > PTRACERS_names(94)= 'c76',
(PID.TID 0000.0001) > PTRACERS_names(95)= 'c77',
(PID.TID 0000.0001) > PTRACERS_names(96)= 'c78',
(PID.TID 0000.0001) > PTRACERS_names(97)= 'zc1',
(PID.TID 0000.0001) > PTRACERS_names(98)= 'zc2',
(PID.TID 0000.0001) >#
(PID.TID 0000.0001) > PTRACERS_units(1)='mmol C/m^3'
(PID.TID 0000.0001) > PTRACERS_units(2)='mmol N/m^3'
(PID.TID 0000.0001) > PTRACERS_units(3)='mmol N/m^3'
(PID.TID 0000.0001) > PTRACERS_units(4)='mmol N/m^3'
(PID.TID 0000.0001) > PTRACERS_units(5)='mmol P/m^3'
(PID.TID 0000.0001) > PTRACERS_units(6)='mmol Si/m^3'
(PID.TID 0000.0001) > PTRACERS_units(7)='mmol Fe/m^3'
(PID.TID 0000.0001) > PTRACERS_units(8)='mmol C/m^3'
(PID.TID 0000.0001) > PTRACERS_units(9)='mmol N/m^3'
(PID.TID 0000.0001) > PTRACERS_units(10)='mmol P/m^3'
(PID.TID 0000.0001) > PTRACERS_units(11)='mmol Fe/m^3'
(PID.TID 0000.0001) > PTRACERS_units(12)='mmol C/m^3'
(PID.TID 0000.0001) > PTRACERS_units(13)='mmol N/m^3'
(PID.TID 0000.0001) > PTRACERS_units(14)='mmol P/m^3'
(PID.TID 0000.0001) > PTRACERS_units(15)='mmol Si/m^3'
(PID.TID 0000.0001) > PTRACERS_units(16)='mmol Fe/m^3'
(PID.TID 0000.0001) > PTRACERS_units(17)='mmol C/m^3'
(PID.TID 0000.0001) > PTRACERS_units(18)='mmol P/m^3'
(PID.TID 0000.0001) > PTRACERS_units(19:98)=80*'mmol C/m^3'
(PID.TID 0000.0001) >#
(PID.TID 0000.0001) > PTRACERS_ref(1:35,   1)= 35*2e3,
(PID.TID 0000.0001) > PTRACERS_initialFile(2)='../input/input/loc1_NH4_run83_janprof.bin',
(PID.TID 0000.0001) > PTRACERS_initialFile(3)='../input/input/loc1_NO2_run83_janprof.bin',
(PID.TID 0000.0001) > PTRACERS_initialFile(4)='../input/input/loc1_nitr_janprof.bin',
(PID.TID 0000.0001) > PTRACERS_initialFile(5)='../input/input/loc1_phos_janprof.bin',
(PID.TID 0000.0001) > PTRACERS_initialFile(6)='../input/input/loc1_sil_janprof.bin',
(PID.TID 0000.0001) > PTRACERS_initialFile(7)='../input/input/fet_uniform.bin',
(PID.TID 0000.0001) > PTRACERS_ref(1:35,   8)= 35*0e0,
(PID.TID 0000.0001) > PTRACERS_initialFile(9)='../input/input/loc1_DON_run83_janprof.bin',
(PID.TID 0000.0001) > PTRACERS_initialFile(10)='../input/input/loc1_DOP_run83_janprof.bin',
(PID.TID 0000.0001) > PTRACERS_initialFile(11)='../input/input/loc1_DOFe_run83_janprof.bin',
(PID.TID 0000.0001) > PTRACERS_ref(1:35,   12)= 35*0e0,
(PID.TID 0000.0001) > PTRACERS_initialFile(13)='../input/input/loc1_PON_run83_janprof.bin',
(PID.TID 0000.0001) > PTRACERS_initialFile(14)='../input/input/loc1_POP_run83_janprof.bin',
(PID.TID 0000.0001) > PTRACERS_initialFile(15)='../input/input/loc1_POSi_run83_janprof.bin',
(PID.TID 0000.0001) > PTRACERS_initialFile(16)='../input/input/loc1_POFe_run83_janprof.bin',
(PID.TID 0000.0001) > PTRACERS_ref(1:35,   17)= 35*0e0,
(PID.TID 0000.0001) > PTRACERS_initialFile(18)='../input/input/loc1_DOP_run83_janprof.bin',
(PID.TID 0000.0001) > PTRACERS_initialFile(19:96)=78*'../input/input/loc1_biomass_run83_janprof.bin',
(PID.TID 0000.0001) > PTRACERS_initialFile(97)='../input/input/loc1_ZOOP_run83_janprof.bin',
(PID.TID 0000.0001) > PTRACERS_initialFile(98)='../input/input/loc1_ZOOP_run83_janprof.bin',
(PID.TID 0000.0001) > /
(PID.TID 0000.0001) 
(PID.TID 0000.0001)  PTRACERS_READPARMS: finished reading data.ptracers
(PID.TID 0000.0001)  GCHEM_READPARMS: opening data.gchem
(PID.TID 0000.0001)  OPEN_COPY_DATA_FILE: opening file data.gchem
(PID.TID 0000.0001) // =======================================================
(PID.TID 0000.0001) // Parameter file "data.gchem"
(PID.TID 0000.0001) // =======================================================
(PID.TID 0000.0001) > &GCHEM_PARM01
(PID.TID 0000.0001) >  useDARWIN=.TRUE.,
(PID.TID 0000.0001) >  nsubtime=1,
(PID.TID 0000.0001) > /
(PID.TID 0000.0001) 
(PID.TID 0000.0001)  GCHEM_READPARMS: finished reading data.gchem
(PID.TID 0000.0001)  DARWIN_READPARMS: opening data.darwin
(PID.TID 0000.0001)  OPEN_COPY_DATA_FILE: opening file data.darwin
(PID.TID 0000.0001) // =======================================================
(PID.TID 0000.0001) // Parameter file "data.darwin"
(PID.TID 0000.0001) // =======================================================
(PID.TID 0000.0001) > &DARWIN_FORCING_PARAMS
(PID.TID 0000.0001) > /
(PID.TID 0000.0001) > &DARWIN_EXF_PARAMS
(PID.TID 0000.0001) > ironFile='../input/input/loc1_FeFlux_monsurf.bin',
(PID.TID 0000.0001) > ironPeriod= -12.
(PID.TID 0000.0001) > darwin_inscal_iron= 1000.,
(PID.TID 0000.0001) >#
(PID.TID 0000.0001) >#PARFile='../input/input/loc1_PAR_monsurf.bin',
(PID.TID 0000.0001) >#
(PID.TID 0000.0001) > OASIM_EdFile( 1)='../input/input/loc1_oasim_edp01_below.bin',
(PID.TID 0000.0001) > OASIM_EdFile( 2)='../input/input/loc1_oasim_edp02_below.bin',
(PID.TID 0000.0001) > OASIM_EdFile( 3)='../input/input/loc1_oasim_edp03_below.bin',
(PID.TID 0000.0001) > OASIM_EdFile( 4)='../input/input/loc1_oasim_edp04_below.bin',
(PID.TID 0000.0001) > OASIM_EdFile( 5)='../input/input/loc1_oasim_edp05_below.bin',
(PID.TID 0000.0001) > OASIM_EdFile( 6)='../input/input/loc1_oasim_edp06_below.bin',
(PID.TID 0000.0001) > OASIM_EdFile( 7)='../input/input/loc1_oasim_edp07_below.bin',
(PID.TID 0000.0001) > OASIM_EdFile( 8)='../input/input/loc1_oasim_edp08_below.bin',
(PID.TID 0000.0001) > OASIM_EdFile( 9)='../input/input/loc1_oasim_edp09_below.bin',
(PID.TID 0000.0001) > OASIM_EdFile(10)='../input/input/loc1_oasim_edp10_below.bin',
(PID.TID 0000.0001) > OASIM_EdFile(11)='../input/input/loc1_oasim_edp11_below.bin',
(PID.TID 0000.0001) > OASIM_EdFile(12)='../input/input/loc1_oasim_edp12_below.bin',
(PID.TID 0000.0001) > OASIM_EdFile(13)='../input/input/loc1_oasim_edp13_below.bin',
(PID.TID 0000.0001) > OASIM_EsFile( 1)='../input/input/loc1_oasim_esp01_below.bin',
(PID.TID 0000.0001) > OASIM_EsFile( 2)='../input/input/loc1_oasim_esp02_below.bin',
(PID.TID 0000.0001) > OASIM_EsFile( 3)='../input/input/loc1_oasim_esp03_below.bin',
(PID.TID 0000.0001) > OASIM_EsFile( 4)='../input/input/loc1_oasim_esp04_below.bin',
(PID.TID 0000.0001) > OASIM_EsFile( 5)='../input/input/loc1_oasim_esp05_below.bin',
(PID.TID 0000.0001) > OASIM_EsFile( 6)='../input/input/loc1_oasim_esp06_below.bin',
(PID.TID 0000.0001) > OASIM_EsFile( 7)='../input/input/loc1_oasim_esp07_below.bin',
(PID.TID 0000.0001) > OASIM_EsFile( 8)='../input/input/loc1_oasim_esp08_below.bin',
(PID.TID 0000.0001) > OASIM_EsFile( 9)='../input/input/loc1_oasim_esp09_below.bin',
(PID.TID 0000.0001) > OASIM_EsFile(10)='../input/input/loc1_oasim_esp10_below.bin',
(PID.TID 0000.0001) > OASIM_EsFile(11)='../input/input/loc1_oasim_esp11_below.bin',
(PID.TID 0000.0001) > OASIM_EsFile(12)='../input/input/loc1_oasim_esp12_below.bin',
(PID.TID 0000.0001) > OASIM_EsFile(13)='../input/input/loc1_oasim_esp13_below.bin',
(PID.TID 0000.0001) > OASIMPeriod= -12.,
(PID.TID 0000.0001) > /
(PID.TID 0000.0001) > &DARWIN_PARAMS
(PID.TID 0000.0001) > darwin_seed=11231,
(PID.TID 0000.0001) > darwin_read_phos= T,
(PID.TID 0000.0001) > /
(PID.TID 0000.0001) > &DARWIN_RADTRANS_PARAMS
(PID.TID 0000.0001) > darwin_waterabsorbFile='abw25par.dat',
(PID.TID 0000.0001) > darwin_phytoabsorbFile='phyto_optics_1bb.dat',
(PID.TID 0000.0001) > darwin_particleabsorbFile='optics_detritus_3bb.dat',
(PID.TID 0000.0001) >#darwin_aCDOMFile='aCDOM13amtVK2006.dat',
(PID.TID 0000.0001) > darwin_radtrans_kmax=22,
(PID.TID 0000.0001) > darwin_waveband_edges=400,412.5,437.5,462.5,487.5,512.5,537.5,562.5,587.5,612.5,637.5,662.5,687.5,700,
(PID.TID 0000.0001) > darwin_waveband_centers=400,425,450,475,500,525,550,575,600,625,650,675,700,
(PID.TID 0000.0001) > /
(PID.TID 0000.0001) > &DARWIN_CDOM_PARAMS
(PID.TID 0000.0001) > /
(PID.TID 0000.0001) > &DARWIN_TRAIT_PARAMS
(PID.TID 0000.0001) > diatom_growfac= 1.0,
(PID.TID 0000.0001) > /
(PID.TID 0000.0001) > &DARWIN_ALLOMETRIC_PARAMS
(PID.TID 0000.0001) > /
(PID.TID 0000.0001) 
(PID.TID 0000.0001)  ===================================
(PID.TID 0000.0001)  DIAGNOSTICS_READPARMS: opening data.diagnostics
(PID.TID 0000.0001)  OPEN_COPY_DATA_FILE: opening file data.diagnostics
(PID.TID 0000.0001) // =======================================================
(PID.TID 0000.0001) // Parameter file "data.diagnostics"
(PID.TID 0000.0001) // =======================================================
(PID.TID 0000.0001) ># Darwin diagnostics
(PID.TID 0000.0001) ># ==================
(PID.TID 0000.0001) > &diagnostics_list
(PID.TID 0000.0001) >#
(PID.TID 0000.0001) >  frequency(1) = 3600.,
(PID.TID 0000.0001) >  fields( 1,1) = 'TRAC01  ',
(PID.TID 0000.0001) >  fields( 2,1) = 'TRAC02  ',
(PID.TID 0000.0001) >  fields( 3,1) = 'TRAC03  ',
(PID.TID 0000.0001) >  fields( 4,1) = 'TRAC04  ',
(PID.TID 0000.0001) >  fields( 5,1) = 'TRAC05  ',
(PID.TID 0000.0001) >  fields( 6,1) = 'TRAC06  ',
(PID.TID 0000.0001) >  fields( 7,1) = 'TRAC07  ',
(PID.TID 0000.0001) >  fields( 8,1) = 'TRAC08  ',
(PID.TID 0000.0001) >  fields( 9,1) = 'TRAC09  ',
(PID.TID 0000.0001) >  fields(10,1) = 'TRAC10  ',
(PID.TID 0000.0001) >  fields(11,1) = 'TRAC11  ',
(PID.TID 0000.0001) >  fields(12,1) = 'TRAC12  ',
(PID.TID 0000.0001) >  fields(13,1) = 'TRAC13  ',
(PID.TID 0000.0001) >  fields(14,1) = 'TRAC14  ',
(PID.TID 0000.0001) >  fields(15,1) = 'TRAC15  ',
(PID.TID 0000.0001) >  fields(16,1) = 'TRAC16  ',
(PID.TID 0000.0001) >  fields(17,1) = 'TRAC17  ',
(PID.TID 0000.0001) >  fields(18,1) = 'TRAC18  ',
(PID.TID 0000.0001) >  fields(19,1) = 'TRAC19  ',
(PID.TID 0000.0001) >  fields(20,1) = 'TRAC20  ',
(PID.TID 0000.0001) >  fields(21,1) = 'TRAC21  ',
(PID.TID 0000.0001) >  fields(22,1) = 'TRAC22  ',
(PID.TID 0000.0001) >  fields(23,1) = 'TRAC23  ',
(PID.TID 0000.0001) >  fields(24,1) = 'TRAC24  ',
(PID.TID 0000.0001) >  fields(25,1) = 'TRAC25  ',
(PID.TID 0000.0001) >  fields(26,1) = 'TRAC26  ',
(PID.TID 0000.0001) >  fields(27,1) = 'TRAC27  ',
(PID.TID 0000.0001) >  fields(28,1) = 'TRAC28  ',
(PID.TID 0000.0001) >  fields(29,1) = 'TRAC29  ',
(PID.TID 0000.0001) >  fields(30,1) = 'TRAC30  ',
(PID.TID 0000.0001) >  fields(31,1) = 'TRAC31  ',
(PID.TID 0000.0001) >  fields(32,1) = 'TRAC32  ',
(PID.TID 0000.0001) >  fields(33,1) = 'TRAC33  ',
(PID.TID 0000.0001) >  fields(34,1) = 'TRAC34  ',
(PID.TID 0000.0001) >  fields(35,1) = 'TRAC35  ',
(PID.TID 0000.0001) >  fields(36,1) = 'TRAC36  ',
(PID.TID 0000.0001) >  fields(37,1) = 'TRAC37  ',
(PID.TID 0000.0001) >  fields(38,1) = 'TRAC38  ',
(PID.TID 0000.0001) >  fields(39,1) = 'TRAC39  ',
(PID.TID 0000.0001) >  fields(40,1) = 'TRAC40  ',
(PID.TID 0000.0001) >  fields(41,1) = 'TRAC41  ',
(PID.TID 0000.0001) >  fields(42,1) = 'TRAC42  ',
(PID.TID 0000.0001) >  fields(43,1) = 'TRAC43  ',
(PID.TID 0000.0001) >  fields(44,1) = 'TRAC44  ',
(PID.TID 0000.0001) >  fields(45,1) = 'TRAC45  ',
(PID.TID 0000.0001) >  fields(46,1) = 'TRAC46  ',
(PID.TID 0000.0001) >  fields(47,1) = 'TRAC47  ',
(PID.TID 0000.0001) >  fields(48,1) = 'TRAC48  ',
(PID.TID 0000.0001) >  fields(49,1) = 'TRAC49  ',
(PID.TID 0000.0001) >  fields(50,1) = 'TRAC50  ',
(PID.TID 0000.0001) >  fields(51,1) = 'TRAC51  ',
(PID.TID 0000.0001) >  fields(52,1) = 'TRAC52  ',
(PID.TID 0000.0001) >  fields(53,1) = 'TRAC53  ',
(PID.TID 0000.0001) >  fields(54,1) = 'TRAC54  ',
(PID.TID 0000.0001) >  fields(55,1) = 'TRAC55  ',
(PID.TID 0000.0001) >  fields(56,1) = 'TRAC56  ',
(PID.TID 0000.0001) >  fields(57,1) = 'TRAC57  ',
(PID.TID 0000.0001) >  fields(58,1) = 'TRAC58  ',
(PID.TID 0000.0001) >  fields(59,1) = 'TRAC59  ',
(PID.TID 0000.0001) >  fields(60,1) = 'TRAC60  ',
(PID.TID 0000.0001) >  fields(61,1) = 'TRAC61  ',
(PID.TID 0000.0001) >  fields(62,1) = 'TRAC62  ',
(PID.TID 0000.0001) >  fields(63,1) = 'TRAC63  ',
(PID.TID 0000.0001) >  fields(64,1) = 'TRAC64  ',
(PID.TID 0000.0001) >  fields(65,1) = 'TRAC65  ',
(PID.TID 0000.0001) >  fields(66,1) = 'TRAC66  ',
(PID.TID 0000.0001) >  fields(67,1) = 'TRAC67  ',
(PID.TID 0000.0001) >  fields(68,1) = 'TRAC68  ',
(PID.TID 0000.0001) >  fields(69,1) = 'TRAC69  ',
(PID.TID 0000.0001) >  fields(70,1) = 'TRAC70  ',
(PID.TID 0000.0001) >  fields(71,1) = 'TRAC71  ',
(PID.TID 0000.0001) >  fields(72,1) = 'TRAC72  ',
(PID.TID 0000.0001) >  fields(73,1) = 'TRAC73  ',
(PID.TID 0000.0001) >  fields(74,1) = 'TRAC74  ',
(PID.TID 0000.0001) >  fields(75,1) = 'TRAC75  ',
(PID.TID 0000.0001) >  fields(76,1) = 'TRAC76  ',
(PID.TID 0000.0001) >  fields(77,1) = 'TRAC77  ',
(PID.TID 0000.0001) >  fields(78,1) = 'TRAC78  ',
(PID.TID 0000.0001) >  fields(79,1) = 'TRAC79  ',
(PID.TID 0000.0001) >  fields(80,1) = 'TRAC80  ',
(PID.TID 0000.0001) >  fields(81,1) = 'TRAC81  ',
(PID.TID 0000.0001) >  fields(82,1) = 'TRAC82  ',
(PID.TID 0000.0001) >  fields(83,1) = 'TRAC83  ',
(PID.TID 0000.0001) >  fields(84,1) = 'TRAC84  ',
(PID.TID 0000.0001) >  fields(85,1) = 'TRAC85  ',
(PID.TID 0000.0001) >  fields(86,1) = 'TRAC86  ',
(PID.TID 0000.0001) >  fields(87,1) = 'TRAC87  ',
(PID.TID 0000.0001) >  fields(88,1) = 'TRAC88  ',
(PID.TID 0000.0001) >  fields(89,1) = 'TRAC89  ',
(PID.TID 0000.0001) >  fields(90,1) = 'TRAC90  ',
(PID.TID 0000.0001) >  fields(91,1) = 'TRAC91  ',
(PID.TID 0000.0001) >  fields(92,1) = 'TRAC92  ',
(PID.TID 0000.0001) >  fields(93,1) = 'TRAC93  ',
(PID.TID 0000.0001) >  fields(94,1) = 'TRAC94  ',
(PID.TID 0000.0001) >  fields(95,1) = 'TRAC95  ',
(PID.TID 0000.0001) >  fields(96,1) = 'TRAC96  ',
(PID.TID 0000.0001) >  fields(97,1) = 'TRAC97  ',
(PID.TID 0000.0001) >  fields(98,1) = 'TRAC98  ',
(PID.TID 0000.0001) >    filename(1) = 'darwin',
(PID.TID 0000.0001) >#
(PID.TID 0000.0001) > /
(PID.TID 0000.0001) >
(PID.TID 0000.0001) ># Parameter for Diagnostics of per level statistics:
(PID.TID 0000.0001) >#-----------------
(PID.TID 0000.0001) ># for each output-stream:
(PID.TID 0000.0001) >#  stat_fname(n) : prefix of the output file name (only 8.c long) for
(PID.TID 0000.0001) >#outp.stream n
(PID.TID 0000.0001) >#  stat_freq(n):< 0 : write snap-shot output every |stat_freq| seconds
(PID.TID 0000.0001) >#               > 0 : write time-average output every stat_freq seconds
(PID.TID 0000.0001) >#  stat_phase(n)    : write at time = stat_phase + multiple of |stat_freq|
(PID.TID 0000.0001) >#  stat_region(:,n) : list of "regions" (default: 1 region only=global)
(PID.TID 0000.0001) >#  stat_fields(:,n) : list of diagnostics fields (8.c) (see
(PID.TID 0000.0001) >#"available_diagnostics.log"
(PID.TID 0000.0001) >#                 file for the list of all available diag. in this particular
(PID.TID 0000.0001) >#config)
(PID.TID 0000.0001) >#-----------------
(PID.TID 0000.0001) > &DIAG_STATIS_PARMS
(PID.TID 0000.0001) > diagst_mnc=.FALSE.,
(PID.TID 0000.0001) >#     stat_freq(1:21)= 21*3600.,
(PID.TID 0000.0001) >#    stat_phase(1:21)= 21*0.,
(PID.TID 0000.0001) ># stat_fields(1,1)= 'TRAC01  '
(PID.TID 0000.0001) ># stat_fields(1,2)= 'TRAC02  '
(PID.TID 0000.0001) ># stat_fields(1,3)= 'TRAC03  '
(PID.TID 0000.0001) ># stat_fields(1,4)= 'TRAC04  '
(PID.TID 0000.0001) ># stat_fields(1,5)= 'TRAC05  '
(PID.TID 0000.0001) ># stat_fields(1,6)= 'TRAC06  '
(PID.TID 0000.0001) ># stat_fields(1,7)= 'TRAC07  '
(PID.TID 0000.0001) ># stat_fields(1,8)= 'TRAC08  '
(PID.TID 0000.0001) ># stat_fields(1,9)= 'TRAC09  '
(PID.TID 0000.0001) ># stat_fields(1,10)= 'TRAC10  '
(PID.TID 0000.0001) ># stat_fields(1,11)= 'TRAC11  '
(PID.TID 0000.0001) ># stat_fields(1,12)= 'TRAC12  '
(PID.TID 0000.0001) ># stat_fields(1,13)= 'TRAC13  '
(PID.TID 0000.0001) ># stat_fields(1,14)= 'TRAC14  '
(PID.TID 0000.0001) ># stat_fields(1,15)= 'TRAC15  '
(PID.TID 0000.0001) ># stat_fields(1,16)= 'TRAC16  '
(PID.TID 0000.0001) ># stat_fields(1,17)= 'TRAC17  '
(PID.TID 0000.0001) ># stat_fields(1,18)= 'TRAC18  '
(PID.TID 0000.0001) ># stat_fields(1,19)= 'TRAC19  '
(PID.TID 0000.0001) ># stat_fields(1,20)= 'TRAC20  '
(PID.TID 0000.0001) ># stat_fields(1,21)= 'TRAC21  '
(PID.TID 0000.0001) >#    stat_fname(1)= 'stats/DIC',
(PID.TID 0000.0001) >#    stat_fname(2)= 'stats/NH4',
(PID.TID 0000.0001) >#    stat_fname(3)= 'stats/NO2',
(PID.TID 0000.0001) >#    stat_fname(4)= 'stats/NO3',
(PID.TID 0000.0001) >#    stat_fname(5)= 'stats/PO4',
(PID.TID 0000.0001) >#    stat_fname(6)= 'stats/SiO2',
(PID.TID 0000.0001) >#    stat_fname(7)= 'stats/FeT',
(PID.TID 0000.0001) >#    stat_fname(8)= 'stats/DOC',
(PID.TID 0000.0001) >#    stat_fname(9)= 'stats/DON',
(PID.TID 0000.0001) >#    stat_fname(10)= 'stats/DOP',
(PID.TID 0000.0001) >#    stat_fname(11)= 'stats/DOFe',
(PID.TID 0000.0001) >#    stat_fname(12)= 'stats/POC',
(PID.TID 0000.0001) >#    stat_fname(13)= 'stats/PON',
(PID.TID 0000.0001) >#    stat_fname(14)= 'stats/POP',
(PID.TID 0000.0001) >#    stat_fname(15)= 'stats/POSi',
(PID.TID 0000.0001) >#    stat_fname(16)= 'stats/POFe',
(PID.TID 0000.0001) >#    stat_fname(17)= 'stats/PIC',
(PID.TID 0000.0001) >#    stat_fname(18)= 'stats/c1',
(PID.TID 0000.0001) >#    stat_fname(19)= 'stats/c2',
(PID.TID 0000.0001) >#    stat_fname(20)= 'stats/c3',
(PID.TID 0000.0001) >#    stat_fname(21)= 'stats/c4',
(PID.TID 0000.0001) > /
(PID.TID 0000.0001) 
(PID.TID 0000.0001) S/R DIAGNOSTICS_READPARMS, read namelist "diagnostics_list": start
(PID.TID 0000.0001) S/R DIAGNOSTICS_READPARMS, read namelist "diagnostics_list": OK
(PID.TID 0000.0001) S/R DIAGNOSTICS_READPARMS, read namelist "DIAG_STATIS_PARMS": start
(PID.TID 0000.0001) S/R DIAGNOSTICS_READPARMS, read namelist "DIAG_STATIS_PARMS": OK
(PID.TID 0000.0001)  DIAGNOSTICS_READPARMS: global parameter summary:
(PID.TID 0000.0001)  dumpAtLast = /* always write time-ave diags at the end */
(PID.TID 0000.0001)                   F
(PID.TID 0000.0001)     ;
(PID.TID 0000.0001)  diag_mnc =   /* write NetCDF output files */
(PID.TID 0000.0001)                   T
(PID.TID 0000.0001)     ;
(PID.TID 0000.0001)  useMissingValue = /* put MissingValue where mask = 0 */
(PID.TID 0000.0001)                   F
(PID.TID 0000.0001)     ;
(PID.TID 0000.0001)  diagCG_maxIters = /* max number of iters in diag_cg2d */
(PID.TID 0000.0001)                     300
(PID.TID 0000.0001)     ;
(PID.TID 0000.0001)  diagCG_resTarget = /* residual target for diag_cg2d */
(PID.TID 0000.0001)                 1.000000000000000E-07
(PID.TID 0000.0001)     ;
(PID.TID 0000.0001) -----------------------------------------------------
(PID.TID 0000.0001)  DIAGNOSTICS_READPARMS: active diagnostics summary:
(PID.TID 0000.0001) -----------------------------------------------------
(PID.TID 0000.0001) Creating Output Stream: darwin
(PID.TID 0000.0001) Output Frequency:       3600.000000 ; Phase:           0.000000
(PID.TID 0000.0001)  Averaging Freq.:       3600.000000 , Phase:           0.000000 , Cycle:   1
(PID.TID 0000.0001)  missing value:  1.234567000000E+05 ; for integers:   123456789
(PID.TID 0000.0001)  Levels:    will be set later
(PID.TID 0000.0001)  Fields:    TRAC01   TRAC02   TRAC03   TRAC04   TRAC05   TRAC06   TRAC07   TRAC08   TRAC09   TRAC10
(PID.TID 0000.0001)  Fields:    TRAC11   TRAC12   TRAC13   TRAC14   TRAC15   TRAC16   TRAC17   TRAC18   TRAC19   TRAC20
(PID.TID 0000.0001)  Fields:    TRAC21   TRAC22   TRAC23   TRAC24   TRAC25   TRAC26   TRAC27   TRAC28   TRAC29   TRAC30
(PID.TID 0000.0001)  Fields:    TRAC31   TRAC32   TRAC33   TRAC34   TRAC35   TRAC36   TRAC37   TRAC38   TRAC39   TRAC40
(PID.TID 0000.0001)  Fields:    TRAC41   TRAC42   TRAC43   TRAC44   TRAC45   TRAC46   TRAC47   TRAC48   TRAC49   TRAC50
(PID.TID 0000.0001)  Fields:    TRAC51   TRAC52   TRAC53   TRAC54   TRAC55   TRAC56   TRAC57   TRAC58   TRAC59   TRAC60
(PID.TID 0000.0001)  Fields:    TRAC61   TRAC62   TRAC63   TRAC64   TRAC65   TRAC66   TRAC67   TRAC68   TRAC69   TRAC70
(PID.TID 0000.0001)  Fields:    TRAC71   TRAC72   TRAC73   TRAC74   TRAC75   TRAC76   TRAC77   TRAC78   TRAC79   TRAC80
(PID.TID 0000.0001)  Fields:    TRAC81   TRAC82   TRAC83   TRAC84   TRAC85   TRAC86   TRAC87   TRAC88   TRAC89   TRAC90
(PID.TID 0000.0001)  Fields:    TRAC91   TRAC92   TRAC93   TRAC94   TRAC95   TRAC96   TRAC97   TRAC98
(PID.TID 0000.0001) -----------------------------------------------------
(PID.TID 0000.0001)  DIAGNOSTICS_READPARMS: statistics diags. summary:
(PID.TID 0000.0001) -----------------------------------------------------
(PID.TID 0000.0001) 
(PID.TID 0000.0001) SET_PARMS: done
(PID.TID 0000.0001) Enter INI_VERTICAL_GRID: setInterFDr=    T ; setCenterDr=    F
(PID.TID 0000.0001) %MON XC_max                       =   3.3550000000000000E+02
(PID.TID 0000.0001) %MON XC_min                       =   3.3550000000000000E+02
(PID.TID 0000.0001) %MON XC_mean                      =   3.3550000000000000E+02
(PID.TID 0000.0001) %MON XC_sd                        =   0.0000000000000000E+00
(PID.TID 0000.0001) %MON XG_max                       =   3.3500000000000000E+02
(PID.TID 0000.0001) %MON XG_min                       =   3.3500000000000000E+02
(PID.TID 0000.0001) %MON XG_mean                      =   3.3500000000000000E+02
(PID.TID 0000.0001) %MON XG_sd                        =   0.0000000000000000E+00
(PID.TID 0000.0001) %MON DXC_max                      =   1.0603184087719869E+05
(PID.TID 0000.0001) %MON DXC_min                      =   1.0603184087719869E+05
(PID.TID 0000.0001) %MON DXC_mean                     =   1.0603184087719869E+05
(PID.TID 0000.0001) %MON DXC_sd                       =   0.0000000000000000E+00
(PID.TID 0000.0001) %MON DXF_max                      =   1.0603184087719869E+05
(PID.TID 0000.0001) %MON DXF_min                      =   1.0603184087719869E+05
(PID.TID 0000.0001) %MON DXF_mean                     =   1.0603184087719869E+05
(PID.TID 0000.0001) %MON DXF_sd                       =   0.0000000000000000E+00
(PID.TID 0000.0001) %MON DXG_max                      =   1.0573606049668728E+05
(PID.TID 0000.0001) %MON DXG_min                      =   1.0573606049668728E+05
(PID.TID 0000.0001) %MON DXG_mean                     =   1.0573606049668728E+05
(PID.TID 0000.0001) %MON DXG_sd                       =   0.0000000000000000E+00
(PID.TID 0000.0001) %MON DXV_max                      =   1.0573606049668728E+05
(PID.TID 0000.0001) %MON DXV_min                      =   1.0573606049668728E+05
(PID.TID 0000.0001) %MON DXV_mean                     =   1.0573606049668728E+05
(PID.TID 0000.0001) %MON DXV_sd                       =   0.0000000000000000E+00
(PID.TID 0000.0001) %MON YC_max                       =  -1.7500000000000000E+01
(PID.TID 0000.0001) %MON YC_min                       =  -1.7500000000000000E+01
(PID.TID 0000.0001) %MON YC_mean                      =  -1.7500000000000000E+01
(PID.TID 0000.0001) %MON YC_sd                        =   0.0000000000000000E+00
(PID.TID 0000.0001) %MON YG_max                       =  -1.8000000000000000E+01
(PID.TID 0000.0001) %MON YG_min                       =  -1.8000000000000000E+01
(PID.TID 0000.0001) %MON YG_mean                      =  -1.8000000000000000E+01
(PID.TID 0000.0001) %MON YG_sd                        =   0.0000000000000000E+00
(PID.TID 0000.0001) %MON DYC_max                      =   1.1117747335203880E+05
(PID.TID 0000.0001) %MON DYC_min                      =   1.1117747335203880E+05
(PID.TID 0000.0001) %MON DYC_mean                     =   1.1117747335203880E+05
(PID.TID 0000.0001) %MON DYC_sd                       =   0.0000000000000000E+00
(PID.TID 0000.0001) %MON DYF_max                      =   1.1117747335203880E+05
(PID.TID 0000.0001) %MON DYF_min                      =   1.1117747335203880E+05
(PID.TID 0000.0001) %MON DYF_mean                     =   1.1117747335203880E+05
(PID.TID 0000.0001) %MON DYF_sd                       =   0.0000000000000000E+00
(PID.TID 0000.0001) %MON DYG_max                      =   1.1117747335203880E+05
(PID.TID 0000.0001) %MON DYG_min                      =   1.1117747335203880E+05
(PID.TID 0000.0001) %MON DYG_mean                     =   1.1117747335203880E+05
(PID.TID 0000.0001) %MON DYG_sd                       =   0.0000000000000000E+00
(PID.TID 0000.0001) %MON DYU_max                      =   1.1117747335203880E+05
(PID.TID 0000.0001) %MON DYU_min                      =   1.1117747335203880E+05
(PID.TID 0000.0001) %MON DYU_mean                     =   1.1117747335203880E+05
(PID.TID 0000.0001) %MON DYU_sd                       =   0.0000000000000000E+00
(PID.TID 0000.0001) %MON RA_max                       =   1.1788202541769560E+10
(PID.TID 0000.0001) %MON RA_min                       =   1.1788202541769560E+10
(PID.TID 0000.0001) %MON RA_mean                      =   1.1788202541769560E+10
(PID.TID 0000.0001) %MON RA_sd                        =   0.0000000000000000E+00
(PID.TID 0000.0001) %MON RAW_max                      =   1.1788202541769560E+10
(PID.TID 0000.0001) %MON RAW_min                      =   1.1788202541769560E+10
(PID.TID 0000.0001) %MON RAW_mean                     =   1.1788202541769560E+10
(PID.TID 0000.0001) %MON RAW_sd                       =   0.0000000000000000E+00
(PID.TID 0000.0001) %MON RAS_max                      =   1.1755318843773766E+10
(PID.TID 0000.0001) %MON RAS_min                      =   1.1755318843773766E+10
(PID.TID 0000.0001) %MON RAS_mean                     =   1.1755318843773766E+10
(PID.TID 0000.0001) %MON RAS_sd                       =   0.0000000000000000E+00
(PID.TID 0000.0001) %MON RAZ_max                      =   1.1755318843773766E+10
(PID.TID 0000.0001) %MON RAZ_min                      =   1.1755318843773766E+10
(PID.TID 0000.0001) %MON RAZ_mean                     =   1.1755318843773766E+10
(PID.TID 0000.0001) %MON RAZ_sd                       =   0.0000000000000000E+00
(PID.TID 0000.0001) %MON AngleCS_max                  =   1.0000000000000000E+00
(PID.TID 0000.0001) %MON AngleCS_min                  =   1.0000000000000000E+00
(PID.TID 0000.0001) %MON AngleCS_mean                 =   1.0000000000000000E+00
(PID.TID 0000.0001) %MON AngleCS_sd                   =   0.0000000000000000E+00
(PID.TID 0000.0001) %MON AngleSN_max                  =   0.0000000000000000E+00
(PID.TID 0000.0001) %MON AngleSN_min                  =   0.0000000000000000E+00
(PID.TID 0000.0001) %MON AngleSN_mean                 =   0.0000000000000000E+00
(PID.TID 0000.0001) %MON AngleSN_sd                   =   0.0000000000000000E+00
(PID.TID 0000.0001)  MDS_READ_FIELD: opening global file: ../input/input/bathyneg.bin
(PID.TID 0000.0001) // =======================================================
(PID.TID 0000.0001) // Field Model R_low (ini_masks_etc)
(PID.TID 0000.0001) // CMIN =         -3.495000000000000E+03
(PID.TID 0000.0001) // CMAX =         -3.495000000000000E+03
(PID.TID 0000.0001) // CINT =          0.000000000000000E+00
(PID.TID 0000.0001) // SYMBOLS (CMIN->CMAX): -abcdefghijklmnopqrstuvwxyz+
(PID.TID 0000.0001) //                  0.0: .
(PID.TID 0000.0001) // RANGE I (Lo:Hi:Step):(    -1:     3:     1)
(PID.TID 0000.0001) // RANGE J (Lo:Hi:Step):(     3:    -1:    -1)
(PID.TID 0000.0001) // RANGE K (Lo:Hi:Step):(   1:   1:   1)
(PID.TID 0000.0001) // =======================================================
(PID.TID 0000.0001) // =======================================================
(PID.TID 0000.0001) // END OF FIELD                                          =
(PID.TID 0000.0001) // =======================================================
(PID.TID 0000.0001) 
(PID.TID 0000.0001) // =======================================================
(PID.TID 0000.0001) // Field Model Ro_surf (ini_masks_etc)
(PID.TID 0000.0001) // CMIN =          1.000000000000000E+32
(PID.TID 0000.0001) // CMAX =         -1.000000000000000E+32
(PID.TID 0000.0001) // CINT =          0.000000000000000E+00
(PID.TID 0000.0001) // SYMBOLS (CMIN->CMAX): -abcdefghijklmnopqrstuvwxyz+
(PID.TID 0000.0001) //                  0.0: .
(PID.TID 0000.0001) // RANGE I (Lo:Hi:Step):(    -1:     3:     1)
(PID.TID 0000.0001) // RANGE J (Lo:Hi:Step):(     3:    -1:    -1)
(PID.TID 0000.0001) // RANGE K (Lo:Hi:Step):(   1:   1:   1)
(PID.TID 0000.0001) // =======================================================
(PID.TID 0000.0001) // =======================================================
(PID.TID 0000.0001) // END OF FIELD                                          =
(PID.TID 0000.0001) // =======================================================
(PID.TID 0000.0001) 
(PID.TID 0000.0001) // =======================================================
(PID.TID 0000.0001) // Field hFacC at iteration          0
(PID.TID 0000.0001) // CMIN =          1.000000000000000E+00
(PID.TID 0000.0001) // CMAX =          1.000000000000000E+00
(PID.TID 0000.0001) // CINT =          0.000000000000000E+00
(PID.TID 0000.0001) // SYMBOLS (CMIN->CMAX): -abcdefghijklmnopqrstuvwxyz+
(PID.TID 0000.0001) //                  0.0: .
(PID.TID 0000.0001) // RANGE I (Lo:Hi:Step):(    -1:     3:     1)
(PID.TID 0000.0001) // RANGE J (Lo:Hi:Step):(     3:    -1:    -1)
(PID.TID 0000.0001) // RANGE K (Lo:Hi:Step):(   1:   1:   1)
(PID.TID 0000.0001) // =======================================================
(PID.TID 0000.0001) // =======================================================
(PID.TID 0000.0001) // END OF FIELD                                          =
(PID.TID 0000.0001) // =======================================================
(PID.TID 0000.0001) 
(PID.TID 0000.0001) // =======================================================
(PID.TID 0000.0001) // Field hFacW at iteration          0
(PID.TID 0000.0001) // CMIN =          1.000000000000000E+00
(PID.TID 0000.0001) // CMAX =          1.000000000000000E+00
(PID.TID 0000.0001) // CINT =          0.000000000000000E+00
(PID.TID 0000.0001) // SYMBOLS (CMIN->CMAX): -abcdefghijklmnopqrstuvwxyz+
(PID.TID 0000.0001) //                  0.0: .
(PID.TID 0000.0001) // RANGE I (Lo:Hi:Step):(    -1:     3:     1)
(PID.TID 0000.0001) // RANGE J (Lo:Hi:Step):(     3:    -1:    -1)
(PID.TID 0000.0001) // RANGE K (Lo:Hi:Step):(   1:   1:   1)
(PID.TID 0000.0001) // =======================================================
(PID.TID 0000.0001) // =======================================================
(PID.TID 0000.0001) // END OF FIELD                                          =
(PID.TID 0000.0001) // =======================================================
(PID.TID 0000.0001) 
(PID.TID 0000.0001) // =======================================================
(PID.TID 0000.0001) // Field hFacS at iteration          0
(PID.TID 0000.0001) // CMIN =          1.000000000000000E+00
(PID.TID 0000.0001) // CMAX =          1.000000000000000E+00
(PID.TID 0000.0001) // CINT =          0.000000000000000E+00
(PID.TID 0000.0001) // SYMBOLS (CMIN->CMAX): -abcdefghijklmnopqrstuvwxyz+
(PID.TID 0000.0001) //                  0.0: .
(PID.TID 0000.0001) // RANGE I (Lo:Hi:Step):(    -1:     3:     1)
(PID.TID 0000.0001) // RANGE J (Lo:Hi:Step):(     3:    -1:    -1)
(PID.TID 0000.0001) // RANGE K (Lo:Hi:Step):(   1:   1:   1)
(PID.TID 0000.0001) // =======================================================
(PID.TID 0000.0001) // =======================================================
(PID.TID 0000.0001) // END OF FIELD                                          =
(PID.TID 0000.0001) // =======================================================
(PID.TID 0000.0001) 
(PID.TID 0000.0001) 
(PID.TID 0000.0001) // =======================================================
(PID.TID 0000.0001) // Calendar configuration >>> START <<<
(PID.TID 0000.0001) // =======================================================
(PID.TID 0000.0001) 
(PID.TID 0000.0001) modelstart = /* Start time of the model integration [s] */
(PID.TID 0000.0001)                 0.000000000000000E+00
(PID.TID 0000.0001)     ;
(PID.TID 0000.0001) modelend  = /* End time of the model integration [s] */
(PID.TID 0000.0001)                 1.440000000000000E+04
(PID.TID 0000.0001)     ;
(PID.TID 0000.0001) modelstep = /* Time interval for a model forward step [s] */
(PID.TID 0000.0001)                 3.600000000000000E+03
(PID.TID 0000.0001)     ;
(PID.TID 0000.0001) usingGregorianCalendar= /* Calendar Type: Gregorian Calendar */
(PID.TID 0000.0001)                   F
(PID.TID 0000.0001)     ;
(PID.TID 0000.0001) usingJulianCalendar = /* Calendar Type: Julian Calendar */
(PID.TID 0000.0001)                   F
(PID.TID 0000.0001)     ;
(PID.TID 0000.0001) usingModelCalendar  = /* Calendar Type: Model Calendar */
(PID.TID 0000.0001)                   T
(PID.TID 0000.0001)     ;
(PID.TID 0000.0001) modelstartdate YYYYMMDD = /* Model start date YYYY-MM-DD */
(PID.TID 0000.0001)                19920101
(PID.TID 0000.0001)     ;
(PID.TID 0000.0001)   modelstartdate HHMMSS = /* Model start date HH-MM-SS  */
(PID.TID 0000.0001)                       0
(PID.TID 0000.0001)     ;
(PID.TID 0000.0001) modelenddate   YYYYMMDD = /* Model end date YYYY-MM-DD */
(PID.TID 0000.0001)                19920101
(PID.TID 0000.0001)     ;
(PID.TID 0000.0001)   modelenddate   HHMMSS = /* Model end date HH-MM-SS  */
(PID.TID 0000.0001)                   40000
(PID.TID 0000.0001)     ;
(PID.TID 0000.0001) intyears = /* Number of calendar years affected by the integration */
(PID.TID 0000.0001)                       1
(PID.TID 0000.0001)     ;
(PID.TID 0000.0001) intmonths= /* Number of calendar months affected by the integration */
(PID.TID 0000.0001)                       1
(PID.TID 0000.0001)     ;
(PID.TID 0000.0001) intdays = /* Number of calendar days affected by the integration */
(PID.TID 0000.0001)                       1
(PID.TID 0000.0001)     ;
(PID.TID 0000.0001) modeliter0 = /* Base timestep number  */
(PID.TID 0000.0001)                       0
(PID.TID 0000.0001)     ;
(PID.TID 0000.0001) modeliterend = /* Final timestep number  */
(PID.TID 0000.0001)                       4
(PID.TID 0000.0001)     ;
(PID.TID 0000.0001) modelintsteps= /* Number of model timesteps  */
(PID.TID 0000.0001)                       4
(PID.TID 0000.0001)     ;
(PID.TID 0000.0001) 
(PID.TID 0000.0001) // =======================================================
(PID.TID 0000.0001) // Calendar configuration  >>> END <<<
(PID.TID 0000.0001) // =======================================================
(PID.TID 0000.0001) 
(PID.TID 0000.0001) GAD_INIT_FIXED: GAD_OlMinSize=  2  0  1
(PID.TID 0000.0001) 
(PID.TID 0000.0001) // ===================================
(PID.TID 0000.0001) // GAD parameters :
(PID.TID 0000.0001) // ===================================
(PID.TID 0000.0001) tempAdvScheme =   /* Temp. Horiz.Advection scheme selector */
(PID.TID 0000.0001)                       3
(PID.TID 0000.0001)     ;
(PID.TID 0000.0001) tempVertAdvScheme =   /* Temp. Vert. Advection scheme selector */
(PID.TID 0000.0001)                       3
(PID.TID 0000.0001)     ;
(PID.TID 0000.0001) tempMultiDimAdvec =   /* use Muti-Dim Advec method for Temp */
(PID.TID 0000.0001)                   F
(PID.TID 0000.0001)     ;
(PID.TID 0000.0001) tempSOM_Advection = /* use 2nd Order Moment Advection for Temp */
(PID.TID 0000.0001)                   F
(PID.TID 0000.0001)     ;
(PID.TID 0000.0001) AdamsBashforthGt = /* apply Adams-Bashforth extrapolation on Gt */
(PID.TID 0000.0001)                   T
(PID.TID 0000.0001)     ;
(PID.TID 0000.0001) AdamsBashforth_T = /* apply Adams-Bashforth extrapolation on Temp */
(PID.TID 0000.0001)                   F
(PID.TID 0000.0001)     ;
(PID.TID 0000.0001) saltAdvScheme =   /* Salt. Horiz.advection scheme selector */
(PID.TID 0000.0001)                       3
(PID.TID 0000.0001)     ;
(PID.TID 0000.0001) saltVertAdvScheme =   /* Salt. Vert. Advection scheme selector */
(PID.TID 0000.0001)                       3
(PID.TID 0000.0001)     ;
(PID.TID 0000.0001) saltMultiDimAdvec =   /* use Muti-Dim Advec method for Salt */
(PID.TID 0000.0001)                   F
(PID.TID 0000.0001)     ;
(PID.TID 0000.0001) saltSOM_Advection = /* use 2nd Order Moment Advection for Salt */
(PID.TID 0000.0001)                   F
(PID.TID 0000.0001)     ;
(PID.TID 0000.0001) AdamsBashforthGs = /* apply Adams-Bashforth extrapolation on Gs */
(PID.TID 0000.0001)                   F
(PID.TID 0000.0001)     ;
(PID.TID 0000.0001) AdamsBashforth_S = /* apply Adams-Bashforth extrapolation on Salt */
(PID.TID 0000.0001)                   F
(PID.TID 0000.0001)     ;
(PID.TID 0000.0001) // ===================================
(PID.TID 0000.0001) 
(PID.TID 0000.0001) // =======================================================
(PID.TID 0000.0001) // External forcing (EXF) configuration >>> START <<<
(PID.TID 0000.0001) // =======================================================
(PID.TID 0000.0001) 
(PID.TID 0000.0001)  EXF general parameters:
(PID.TID 0000.0001) 
(PID.TID 0000.0001) exf_iprec = /* exf file precision */
(PID.TID 0000.0001)                      32
(PID.TID 0000.0001)     ;
(PID.TID 0000.0001) useExfYearlyFields = /* add extension _YEAR to input file names */
(PID.TID 0000.0001)                   T
(PID.TID 0000.0001)     ;
(PID.TID 0000.0001) twoDigitYear = /* use 2-digit year extension */
(PID.TID 0000.0001)                   T
(PID.TID 0000.0001)     ;
(PID.TID 0000.0001) exf_verbose = /* print more messages to STDOUT */
(PID.TID 0000.0001)                   F
(PID.TID 0000.0001)     ;
(PID.TID 0000.0001) useExfCheckRange = /* check for fields range */
(PID.TID 0000.0001)                   F
(PID.TID 0000.0001)     ;
(PID.TID 0000.0001) exf_monFreq = /* EXF monitor frequency [ s ] */
(PID.TID 0000.0001)                 1.000000000000000E+00
(PID.TID 0000.0001)     ;
(PID.TID 0000.0001) repeatPeriod = /* period for cycling forcing dataset [ s ] */
(PID.TID 0000.0001)                 0.000000000000000E+00
(PID.TID 0000.0001)     ;
(PID.TID 0000.0001) climTempFreeze= /* Minimum climatological temperature [deg.C] */
(PID.TID 0000.0001)                -1.900000000000000E+00
(PID.TID 0000.0001)     ;
(PID.TID 0000.0001) windStressMax = /* Maximum absolute windstress [ Pa ] */
(PID.TID 0000.0001)                 2.000000000000000E+00
(PID.TID 0000.0001)     ;
(PID.TID 0000.0001) stressIsOnCgrid = /* set u,v_stress on Arakawa C-grid */
(PID.TID 0000.0001)                   F
(PID.TID 0000.0001)     ;
(PID.TID 0000.0001) cen2kel = /* conversion of deg. Centigrade to Kelvin [K] */
(PID.TID 0000.0001)                 2.731500000000000E+02
(PID.TID 0000.0001)     ;
(PID.TID 0000.0001) gravity_mks= /* gravitational acceleration [m/s^2] */
(PID.TID 0000.0001)                 9.810000000000000E+00
(PID.TID 0000.0001)     ;
(PID.TID 0000.0001) atmrho =  /* mean atmospheric density [kg/m^3] */
(PID.TID 0000.0001)                 1.200000000000000E+00
(PID.TID 0000.0001)     ;
(PID.TID 0000.0001) atmcp =  /* mean atmospheric specific heat [J/kg/K] */
(PID.TID 0000.0001)                 1.005000000000000E+03
(PID.TID 0000.0001)     ;
(PID.TID 0000.0001) flamb =  /* latent heat of evaporation [J/kg] */
(PID.TID 0000.0001)                 2.500000000000000E+06
(PID.TID 0000.0001)     ;
(PID.TID 0000.0001) flami =  /* latent heat of pure-ice melting [J/kg] */
(PID.TID 0000.0001)                 3.340000000000000E+05
(PID.TID 0000.0001)     ;
(PID.TID 0000.0001) cvapor_fac = /* const. for Saturation calculation [?] */
(PID.TID 0000.0001)                 6.403800000000000E+05
(PID.TID 0000.0001)     ;
(PID.TID 0000.0001) cvapor_exp = /* const. for Saturation calculation [?] */
(PID.TID 0000.0001)                 5.107400000000000E+03
(PID.TID 0000.0001)     ;
(PID.TID 0000.0001) cvapor_fac_ice= /* const. for Saturation calculation [?] */
(PID.TID 0000.0001)                 1.163780000000000E+07
(PID.TID 0000.0001)     ;
(PID.TID 0000.0001) cvapor_exp_ice= /* const. for Saturation calculation [?] */
(PID.TID 0000.0001)                 5.897800000000000E+03
(PID.TID 0000.0001)     ;
(PID.TID 0000.0001) humid_fac = /* humidity coef. in virtual temp. [(kg/kg)^-1] */
(PID.TID 0000.0001)                 6.060000000000000E-01
(PID.TID 0000.0001)     ;
(PID.TID 0000.0001) gamma_blk = /* adiabatic lapse rate [?] */
(PID.TID 0000.0001)                 1.000000000000000E-02
(PID.TID 0000.0001)     ;
(PID.TID 0000.0001) saltsat = /* reduction of Qsat over salty water [-] */
(PID.TID 0000.0001)                 9.800000000000000E-01
(PID.TID 0000.0001)     ;
(PID.TID 0000.0001) noNegativeEvap = /* prevent negative Evaporation */
(PID.TID 0000.0001)                   F
(PID.TID 0000.0001)     ;
(PID.TID 0000.0001) sstExtrapol = /* extrapolation coeff from lev. 1 & 2 to surf [-] */
(PID.TID 0000.0001)                 0.000000000000000E+00
(PID.TID 0000.0001)     ;
(PID.TID 0000.0001) cDrag_1 = /* coef used in drag calculation [?] */
(PID.TID 0000.0001)                 2.700000000000000E-03
(PID.TID 0000.0001)     ;
(PID.TID 0000.0001) cDrag_2 = /* coef used in drag calculation [?] */
(PID.TID 0000.0001)                 1.420000000000000E-04
(PID.TID 0000.0001)     ;
(PID.TID 0000.0001) cDrag_3 = /* coef used in drag calculation [?] */
(PID.TID 0000.0001)                 7.640000000000000E-05
(PID.TID 0000.0001)     ;
(PID.TID 0000.0001) cStanton_1 = /* coef used in Stanton number calculation [?] */
(PID.TID 0000.0001)                 3.270000000000000E-02
(PID.TID 0000.0001)     ;
(PID.TID 0000.0001) cStanton_2 = /* coef used in Stanton number calculation [?] */
(PID.TID 0000.0001)                 1.800000000000000E-02
(PID.TID 0000.0001)     ;
(PID.TID 0000.0001) cDalton = /* coef used in Dalton number calculation [?] */
(PID.TID 0000.0001)                 3.460000000000000E-02
(PID.TID 0000.0001)     ;
(PID.TID 0000.0001) exf_scal_BulkCdn= /* Drag coefficient scaling factor [-] */
(PID.TID 0000.0001)                 1.000000000000000E+00
(PID.TID 0000.0001)     ;
(PID.TID 0000.0001) zolmin = /* minimum stability parameter [?] */
(PID.TID 0000.0001)                -1.000000000000000E+02
(PID.TID 0000.0001)     ;
(PID.TID 0000.0001) psim_fac = /* coef used in turbulent fluxes calculation [-] */
(PID.TID 0000.0001)                 5.000000000000000E+00
(PID.TID 0000.0001)     ;
(PID.TID 0000.0001) zref =  /* reference height [ m ] */
(PID.TID 0000.0001)                 1.000000000000000E+01
(PID.TID 0000.0001)     ;
(PID.TID 0000.0001) hu =  /* height of mean wind [ m ] */
(PID.TID 0000.0001)                 1.000000000000000E+01
(PID.TID 0000.0001)     ;
(PID.TID 0000.0001) ht =  /* height of mean temperature [ m ] */
(PID.TID 0000.0001)                 2.000000000000000E+00
(PID.TID 0000.0001)     ;
(PID.TID 0000.0001) hq =  /* height of mean spec.humidity [ m ] */
(PID.TID 0000.0001)                 2.000000000000000E+00
(PID.TID 0000.0001)     ;
(PID.TID 0000.0001) uMin = /* minimum wind speed [m/s] */
(PID.TID 0000.0001)                 5.000000000000000E-01
(PID.TID 0000.0001)     ;
(PID.TID 0000.0001) useStabilityFct_overIce= /* transfert Coeffs over sea-ice depend on stability */
(PID.TID 0000.0001)                   F
(PID.TID 0000.0001)     ;
(PID.TID 0000.0001) exf_iceCd = /* drag coefficient over sea-ice (fixed) [-] */
(PID.TID 0000.0001)                 1.630000000000000E-03
(PID.TID 0000.0001)     ;
(PID.TID 0000.0001) exf_iceCe = /* transfert coeff. over sea-ice, for Evap (fixed) [-] */
(PID.TID 0000.0001)                 1.630000000000000E-03
(PID.TID 0000.0001)     ;
(PID.TID 0000.0001) exf_iceCh = /* transfert coeff. over sea-ice, Sens.Heat.(fixed)[-] */
(PID.TID 0000.0001)                 1.630000000000000E-03
(PID.TID 0000.0001)     ;
(PID.TID 0000.0001) exf_albedo =  /* Sea-water albedo [-] */
(PID.TID 0000.0001)                 1.500000000000000E-01
(PID.TID 0000.0001)     ;
(PID.TID 0000.0001) useExfZenAlbedo = /* Sea-water albedo varies with zenith angle */
(PID.TID 0000.0001)                   F
(PID.TID 0000.0001)     ;
(PID.TID 0000.0001) select_ZenAlbedo = /* Sea-water albedo computation method */
(PID.TID 0000.0001)                       0
(PID.TID 0000.0001)     ;
(PID.TID 0000.0001) useExfZenIncoming = /* compute incoming solar radiation */
(PID.TID 0000.0001)                   F
(PID.TID 0000.0001)     ;
(PID.TID 0000.0001) ocean_emissivity = /* longwave ocean-surface emissivity [-] */
(PID.TID 0000.0001)                 9.700176366843034E-01
(PID.TID 0000.0001)     ;
(PID.TID 0000.0001) ice_emissivity = /* longwave seaice emissivity [-] */
(PID.TID 0000.0001)                 9.500000000000000E-01
(PID.TID 0000.0001)     ;
(PID.TID 0000.0001) snow_emissivity = /* longwave snow  emissivity [-] */
(PID.TID 0000.0001)                 9.500000000000000E-01
(PID.TID 0000.0001)     ;
(PID.TID 0000.0001) 
(PID.TID 0000.0001)  EXF main CPP flags:
(PID.TID 0000.0001) 
(PID.TID 0000.0001) // USE_EXF_INTERPOLATION:          NOT defined
(PID.TID 0000.0001) // ALLOW_ATM_TEMP:                     defined
(PID.TID 0000.0001) // ALLOW_ATM_WIND (useAtmWind):        defined
(PID.TID 0000.0001) // ALLOW_DOWNWARD_RADIATION:           defined
(PID.TID 0000.0001) // ALLOW_BULKFORMULAE:                 defined
(PID.TID 0000.0001) 
(PID.TID 0000.0001)    Net shortwave flux forcing starts at                0.
(PID.TID 0000.0001)    Net shortwave flux forcing period is                0.
(PID.TID 0000.0001)    Net shortwave flux forcing is read from file:
(PID.TID 0000.0001)    >>    <<
(PID.TID 0000.0001) 
(PID.TID 0000.0001)    Zonal wind forcing starts at                          0.
(PID.TID 0000.0001)    Zonal wind forcing period is                          0.
(PID.TID 0000.0001)    Zonal wind forcing is read from file:
(PID.TID 0000.0001)    >>    <<
(PID.TID 0000.0001) 
(PID.TID 0000.0001)    Meridional wind forcing starts at                     0.
(PID.TID 0000.0001)    Meridional wind forcing period is                     0.
(PID.TID 0000.0001)    Meridional wind forcing is read from file:
(PID.TID 0000.0001)    >>    <<
(PID.TID 0000.0001) 
(PID.TID 0000.0001)    Atmospheric temperature starts at                     0.
(PID.TID 0000.0001)    Atmospheric temperature period is                     0.
(PID.TID 0000.0001)    Atmospheric temperature is read from file:
(PID.TID 0000.0001)    >>    <<
(PID.TID 0000.0001) 
(PID.TID 0000.0001)    Atmospheric specific humidity starts at               0.
(PID.TID 0000.0001)    Atmospheric specific humidity period is               0.
(PID.TID 0000.0001)    Atmospheric specific humidity is read from file:
(PID.TID 0000.0001)    >>    <<
(PID.TID 0000.0001) 
(PID.TID 0000.0001)    Net longwave flux forcing starts at                 0.
(PID.TID 0000.0001)    Net longwave flux forcing period is                 0.
(PID.TID 0000.0001)    Net longwave flux forcing is read from file:
(PID.TID 0000.0001)    >>    <<
(PID.TID 0000.0001) 
(PID.TID 0000.0001)    Precipitation data set starts at                      0.
(PID.TID 0000.0001)    Precipitation data period is                          0.
(PID.TID 0000.0001)    Precipitation data is read from file:
(PID.TID 0000.0001)    >>    <<
(PID.TID 0000.0001) 
(PID.TID 0000.0001) // EXF_READ_EVAP:                  NOT defined
(PID.TID 0000.0001) 
(PID.TID 0000.0001) // ALLOW_RUNOFF:                       defined
(PID.TID 0000.0001)    Runoff starts at               0.
(PID.TID 0000.0001)    Runoff period is               0.
(PID.TID 0000.0001)    Runoff is read from file:
(PID.TID 0000.0001)    >>    <<
(PID.TID 0000.0001) 
(PID.TID 0000.0001)    Downward shortwave flux forcing starts at                0.
(PID.TID 0000.0001)    Downward shortwave flux forcing period is                0.
(PID.TID 0000.0001)    Downward shortwave flux forcing is read from file:
(PID.TID 0000.0001)    >>    <<
(PID.TID 0000.0001) 
(PID.TID 0000.0001)    Downward longwave flux forcing starts at                 0.
(PID.TID 0000.0001)    Downward longwave flux forcing period is                 0.
(PID.TID 0000.0001)    Downward longwave flux forcing is read from file:
(PID.TID 0000.0001)    >>    <<
(PID.TID 0000.0001) 
(PID.TID 0000.0001)    Atmospheric pressure forcing starts at                0.
(PID.TID 0000.0001)    Atmospheric pressure forcing period is                0.
(PID.TID 0000.0001)    Atmospheric pressureforcing is read from file:
(PID.TID 0000.0001)    >>    <<
(PID.TID 0000.0001) 
(PID.TID 0000.0001) // =======================================================
(PID.TID 0000.0001) // External forcing (EXF) climatology configuration :
(PID.TID 0000.0001) // =======================================================
(PID.TID 0000.0001) 
(PID.TID 0000.0001) // ALLOW_CLIMSST_RELAXATION:       NOT defined
(PID.TID 0000.0001) // ALLOW_CLIMSSS_RELAXATION:       NOT defined
(PID.TID 0000.0001) 
(PID.TID 0000.0001) // =======================================================
(PID.TID 0000.0001) // External forcing (EXF) configuration  >>> END <<<
(PID.TID 0000.0001) // =======================================================
(PID.TID 0000.0001) 
(PID.TID 0000.0001) DARWIN_INIT_FIXED:
(PID.TID 0000.0001) DARWIN_INIT_FIXED: wavebands:
(PID.TID 0000.0001) DARWIN_INIT_FIXED:  idx       low   rep      high    width
(PID.TID 0000.0001) DARWIN_INIT_FIXED:    1   400.000  400.   412.500   12.500
(PID.TID 0000.0001) DARWIN_INIT_FIXED:    2   412.500  425.   437.500   25.000
(PID.TID 0000.0001) DARWIN_INIT_FIXED:    3   437.500  450.   462.500   25.000
(PID.TID 0000.0001) DARWIN_INIT_FIXED:    4   462.500  475.   487.500   25.000
(PID.TID 0000.0001) DARWIN_INIT_FIXED:    5   487.500  500.   512.500   25.000
(PID.TID 0000.0001) DARWIN_INIT_FIXED:    6   512.500  525.   537.500   25.000
(PID.TID 0000.0001) DARWIN_INIT_FIXED:    7   537.500  550.   562.500   25.000
(PID.TID 0000.0001) DARWIN_INIT_FIXED:    8   562.500  575.   587.500   25.000
(PID.TID 0000.0001) DARWIN_INIT_FIXED:    9   587.500  600.   612.500   25.000
(PID.TID 0000.0001) DARWIN_INIT_FIXED:   10   612.500  625.   637.500   25.000
(PID.TID 0000.0001) DARWIN_INIT_FIXED:   11   637.500  650.   662.500   25.000
(PID.TID 0000.0001) DARWIN_INIT_FIXED:   12   662.500  675.   687.500   25.000
(PID.TID 0000.0001) DARWIN_INIT_FIXED:   13   687.500  700.   700.000   12.500
(PID.TID 0000.0001) DARWIN_INIT_FIXED:
(PID.TID 0000.0001) DARWIN_INIT_FIXED: water spectra:
(PID.TID 0000.0001) DARWIN_INIT_FIXED:  lam aw             bw
(PID.TID 0000.0001) DARWIN_INIT_FIXED: 400.         0.0063    0.0076
(PID.TID 0000.0001) DARWIN_INIT_FIXED: 425.         0.0051    0.0058
(PID.TID 0000.0001) DARWIN_INIT_FIXED: 450.         0.0083    0.0045
(PID.TID 0000.0001) DARWIN_INIT_FIXED: 475.         0.0119    0.0036
(PID.TID 0000.0001) DARWIN_INIT_FIXED: 500.         0.0215    0.0029
(PID.TID 0000.0001) DARWIN_INIT_FIXED: 525.         0.0407    0.0023
(PID.TID 0000.0001) DARWIN_INIT_FIXED: 550.         0.0550    0.0019
(PID.TID 0000.0001) DARWIN_INIT_FIXED: 575.         0.0849    0.0016
(PID.TID 0000.0001) DARWIN_INIT_FIXED: 600.         0.1995    0.0014
(PID.TID 0000.0001) DARWIN_INIT_FIXED: 625.         0.2850    0.0012
(PID.TID 0000.0001) DARWIN_INIT_FIXED: 650.         0.3512    0.0009
(PID.TID 0000.0001) DARWIN_INIT_FIXED: 675.         0.4559    0.0007
(PID.TID 0000.0001) DARWIN_INIT_FIXED: 700.         0.6433    0.0007
(PID.TID 0000.0001) DARWIN_INIT_FIXED:
(PID.TID 0000.0001) DARWIN_INIT_FIXED: phyto spectra:
(PID.TID 0000.0001) DARWIN_INIT_FIXED: type    1
(PID.TID 0000.0001) DARWIN_INIT_FIXED:  lam ap        ap_ps     bp        bbp
(PID.TID 0000.0001) DARWIN_INIT_FIXED: 400.    0.0304    0.0304    0.0900         0.000261000
(PID.TID 0000.0001) DARWIN_INIT_FIXED: 425.    0.0361    0.0361    0.0870         0.000252300
(PID.TID 0000.0001) DARWIN_INIT_FIXED: 450.    0.0378    0.0378    0.0870         0.000252300
(PID.TID 0000.0001) DARWIN_INIT_FIXED: 475.    0.0341    0.0341    0.0880         0.000255200
(PID.TID 0000.0001) DARWIN_INIT_FIXED: 500.    0.0238    0.0238    0.0920         0.000266800
(PID.TID 0000.0001) DARWIN_INIT_FIXED: 525.    0.0161    0.0161    0.0991         0.000287390
(PID.TID 0000.0001) DARWIN_INIT_FIXED: 550.    0.0089    0.0089    0.1082         0.000313780
(PID.TID 0000.0001) DARWIN_INIT_FIXED: 575.    0.0060    0.0060    0.1130         0.000327700
(PID.TID 0000.0001) DARWIN_INIT_FIXED: 600.    0.0061    0.0061    0.1150         0.000333500
(PID.TID 0000.0001) DARWIN_INIT_FIXED: 625.    0.0064    0.0064    0.1143         0.000331470
(PID.TID 0000.0001) DARWIN_INIT_FIXED: 650.    0.0062    0.0062    0.1140         0.000330600
(PID.TID 0000.0001) DARWIN_INIT_FIXED: 675.    0.0197    0.0197    0.1140         0.000330600
(PID.TID 0000.0001) DARWIN_INIT_FIXED: 700.    0.0019    0.0019    0.1110         0.000321900
(PID.TID 0000.0001) DARWIN_INIT_FIXED:
(PID.TID 0000.0001) DARWIN_INIT_FIXED: type    2
(PID.TID 0000.0001) DARWIN_INIT_FIXED:  lam ap        ap_ps     bp        bbp
(PID.TID 0000.0001) DARWIN_INIT_FIXED: 400.    0.0292    0.0222    0.3250         0.001040000
(PID.TID 0000.0001) DARWIN_INIT_FIXED: 425.    0.0407    0.0257    0.2974         0.000951680
(PID.TID 0000.0001) DARWIN_INIT_FIXED: 450.    0.0371    0.0153    0.2831         0.000905920
(PID.TID 0000.0001) DARWIN_INIT_FIXED: 475.    0.0296    0.0075    0.2790         0.000892800
(PID.TID 0000.0001) DARWIN_INIT_FIXED: 500.    0.0315    0.0158    0.2748         0.000879360
(PID.TID 0000.0001) DARWIN_INIT_FIXED: 525.    0.0257    0.0240    0.2594         0.000830080
(PID.TID 0000.0001) DARWIN_INIT_FIXED: 550.    0.0314    0.0314    0.2495         0.000798400
(PID.TID 0000.0001) DARWIN_INIT_FIXED: 575.    0.0134    0.0134    0.2307         0.000738240
(PID.TID 0000.0001) DARWIN_INIT_FIXED: 600.    0.0061    0.0061    0.2112         0.000675840
(PID.TID 0000.0001) DARWIN_INIT_FIXED: 625.    0.0072    0.0072    0.2020         0.000646400
(PID.TID 0000.0001) DARWIN_INIT_FIXED: 650.    0.0072    0.0072    0.1939         0.000620480
(PID.TID 0000.0001) DARWIN_INIT_FIXED: 675.    0.0164    0.0164    0.1766         0.000565120
(PID.TID 0000.0001) DARWIN_INIT_FIXED: 700.    0.0032    0.0032    0.1603         0.000512960
(PID.TID 0000.0001) DARWIN_INIT_FIXED:
(PID.TID 0000.0001) DARWIN_INIT_FIXED: type    3
(PID.TID 0000.0001) DARWIN_INIT_FIXED:  lam ap        ap_ps     bp        bbp
(PID.TID 0000.0001) DARWIN_INIT_FIXED: 400.    0.0245    0.0165    0.0523         0.000292357
(PID.TID 0000.0001) DARWIN_INIT_FIXED: 425.    0.0401    0.0225    0.0464         0.000259376
(PID.TID 0000.0001) DARWIN_INIT_FIXED: 450.    0.0473    0.0171    0.0478         0.000267202
(PID.TID 0000.0001) DARWIN_INIT_FIXED: 475.    0.0265    0.0054    0.0501         0.000280059
(PID.TID 0000.0001) DARWIN_INIT_FIXED: 500.    0.0198    0.0008    0.0510         0.000285090
(PID.TID 0000.0001) DARWIN_INIT_FIXED: 525.    0.0055    0.0016    0.0433         0.000242047
(PID.TID 0000.0001) DARWIN_INIT_FIXED: 550.    0.0027    0.0026    0.0364         0.000203476
(PID.TID 0000.0001) DARWIN_INIT_FIXED: 575.    0.0027    0.0027    0.0303         0.000169377
(PID.TID 0000.0001) DARWIN_INIT_FIXED: 600.    0.0033    0.0033    0.0277         0.000154843
(PID.TID 0000.0001) DARWIN_INIT_FIXED: 625.    0.0046    0.0046    0.0249         0.000139191
(PID.TID 0000.0001) DARWIN_INIT_FIXED: 650.    0.0053    0.0053    0.0205         0.000114595
(PID.TID 0000.0001) DARWIN_INIT_FIXED: 675.    0.0175    0.0175    0.0230         0.000128570
(PID.TID 0000.0001) DARWIN_INIT_FIXED: 700.    0.0035    0.0035    0.0223         0.000124657
(PID.TID 0000.0001) DARWIN_INIT_FIXED:
(PID.TID 0000.0001) DARWIN_INIT_FIXED: type    4
(PID.TID 0000.0001) DARWIN_INIT_FIXED:  lam ap        ap_ps     bp        bbp
(PID.TID 0000.0001) DARWIN_INIT_FIXED: 400.    0.0385    0.0220    0.0523         0.000292357
(PID.TID 0000.0001) DARWIN_INIT_FIXED: 425.    0.0611    0.0270    0.0464         0.000259376
(PID.TID 0000.0001) DARWIN_INIT_FIXED: 450.    0.0744    0.0239    0.0478         0.000267202
(PID.TID 0000.0001) DARWIN_INIT_FIXED: 475.    0.0583    0.0189    0.0501         0.000280059
(PID.TID 0000.0001) DARWIN_INIT_FIXED: 500.    0.0359    0.0019    0.0510         0.000285090
(PID.TID 0000.0001) DARWIN_INIT_FIXED: 525.    0.0122    0.0031    0.0433         0.000242047
(PID.TID 0000.0001) DARWIN_INIT_FIXED: 550.    0.0066    0.0063    0.0364         0.000203476
(PID.TID 0000.0001) DARWIN_INIT_FIXED: 575.    0.0054    0.0054    0.0303         0.000169377
(PID.TID 0000.0001) DARWIN_INIT_FIXED: 600.    0.0060    0.0060    0.0277         0.000154843
(PID.TID 0000.0001) DARWIN_INIT_FIXED: 625.    0.0066    0.0066    0.0249         0.000139191
(PID.TID 0000.0001) DARWIN_INIT_FIXED: 650.    0.0115    0.0115    0.0205         0.000114595
(PID.TID 0000.0001) DARWIN_INIT_FIXED: 675.    0.0179    0.0179    0.0230         0.000128570
(PID.TID 0000.0001) DARWIN_INIT_FIXED: 700.    0.0044    0.0044    0.0223         0.000124657
(PID.TID 0000.0001) DARWIN_INIT_FIXED:
(PID.TID 0000.0001) DARWIN_INIT_FIXED: particulate spectra:
(PID.TID 0000.0001) DARWIN_INIT_FIXED:  lam apart          bpart          bbpart
(PID.TID 0000.0001) DARWIN_INIT_FIXED: 400.   3.060000E-17   5.100000E-16   2.759100E-18
(PID.TID 0000.0001) DARWIN_INIT_FIXED: 425.   2.470000E-17   4.800000E-16   2.596800E-18
(PID.TID 0000.0001) DARWIN_INIT_FIXED: 450.   1.960000E-17   4.250000E-16   2.299250E-18
(PID.TID 0000.0001) DARWIN_INIT_FIXED: 475.   1.600000E-17   4.350000E-16   2.353350E-18
(PID.TID 0000.0001) DARWIN_INIT_FIXED: 500.   1.290000E-17   4.150000E-16   2.245150E-18
(PID.TID 0000.0001) DARWIN_INIT_FIXED: 525.   1.040000E-17   3.930000E-16   2.126130E-18
(PID.TID 0000.0001) DARWIN_INIT_FIXED: 550.   8.470000E-18   3.750000E-16   2.028750E-18
(PID.TID 0000.0001) DARWIN_INIT_FIXED: 575.   6.920000E-18   3.610000E-16   1.953010E-18
(PID.TID 0000.0001) DARWIN_INIT_FIXED: 600.   5.570000E-18   3.470000E-16   1.877270E-18
(PID.TID 0000.0001) DARWIN_INIT_FIXED: 625.   4.490000E-18   3.340000E-16   1.806940E-18
(PID.TID 0000.0001) DARWIN_INIT_FIXED: 650.   3.640000E-18   3.160000E-16   1.709560E-18
(PID.TID 0000.0001) DARWIN_INIT_FIXED: 675.   2.980000E-18   3.080000E-16   1.666280E-18
(PID.TID 0000.0001) DARWIN_INIT_FIXED: 700.   2.410000E-18   2.990000E-16   1.617590E-18
(PID.TID 0000.0001) DARWIN_INIT_FIXED:
(PID.TID 0000.0001) DARWIN_INIT_FIXED: particulate spectra in phosphorus units:
(PID.TID 0000.0001) DARWIN_INIT_FIXED:  lam apart_P        bpart_P        bbpart_P
(PID.TID 0000.0001) DARWIN_INIT_FIXED: 400.    0.030600000    0.510000000 0.002759100000
(PID.TID 0000.0001) DARWIN_INIT_FIXED: 425.    0.024700000    0.480000000 0.002596800000
(PID.TID 0000.0001) DARWIN_INIT_FIXED: 450.    0.019600000    0.425000000 0.002299250000
(PID.TID 0000.0001) DARWIN_INIT_FIXED: 475.    0.016000000    0.435000000 0.002353350000
(PID.TID 0000.0001) DARWIN_INIT_FIXED: 500.    0.012900000    0.415000000 0.002245150000
(PID.TID 0000.0001) DARWIN_INIT_FIXED: 525.    0.010400000    0.393000000 0.002126130000
(PID.TID 0000.0001) DARWIN_INIT_FIXED: 550.    0.008470000    0.375000000 0.002028750000
(PID.TID 0000.0001) DARWIN_INIT_FIXED: 575.    0.006920000    0.361000000 0.001953010000
(PID.TID 0000.0001) DARWIN_INIT_FIXED: 600.    0.005570000    0.347000000 0.001877270000
(PID.TID 0000.0001) DARWIN_INIT_FIXED: 625.    0.004490000    0.334000000 0.001806940000
(PID.TID 0000.0001) DARWIN_INIT_FIXED: 650.    0.003640000    0.316000000 0.001709560000
(PID.TID 0000.0001) DARWIN_INIT_FIXED: 675.    0.002980000    0.308000000 0.001666280000
(PID.TID 0000.0001) DARWIN_INIT_FIXED: 700.    0.002410000    0.299000000 0.001617590000
(PID.TID 0000.0001) DARWIN_INIT_FIXED:
(PID.TID 0000.0001) QQ random port_rand            11231   0.4077530000000000
(PID.TID 0000.0001)  DARWIN_INIT_FIXED: opening data.traits
(PID.TID 0000.0001)  OPEN_COPY_DATA_FILE: opening file data.traits
(PID.TID 0000.0001) // =======================================================
(PID.TID 0000.0001) // Parameter file "data.traits"
(PID.TID 0000.0001) // =======================================================
(PID.TID 0000.0001) > &DARWIN_TRAITS
(PID.TID 0000.0001) > /
(PID.TID 0000.0001) > &DARWIN_RADTRANS_TRAITS
(PID.TID 0000.0001) > /
(PID.TID 0000.0001) 
(PID.TID 0000.0001)  ===================================
(PID.TID 0000.0001) ------------------------------------------------------------
(PID.TID 0000.0001) DIAGNOSTICS_SET_LEVELS: done
(PID.TID 0000.0001)  Total Nb of available Diagnostics: ndiagt=  2223
(PID.TID 0000.0001)  write list of available Diagnostics to file: available_diagnostics.log
(PID.TID 0000.0001) SETDIAG: Allocate 35 x  1 Levels for Diagnostic #   140 TRAC01
(PID.TID 0000.0001) SETDIAG: Allocate 35 x  1 Levels for Diagnostic #   152 TRAC02
(PID.TID 0000.0001) SETDIAG: Allocate 35 x  1 Levels for Diagnostic #   164 TRAC03
(PID.TID 0000.0001) SETDIAG: Allocate 35 x  1 Levels for Diagnostic #   176 TRAC04
(PID.TID 0000.0001) SETDIAG: Allocate 35 x  1 Levels for Diagnostic #   188 TRAC05
(PID.TID 0000.0001) SETDIAG: Allocate 35 x  1 Levels for Diagnostic #   200 TRAC06
(PID.TID 0000.0001) SETDIAG: Allocate 35 x  1 Levels for Diagnostic #   212 TRAC07
(PID.TID 0000.0001) SETDIAG: Allocate 35 x  1 Levels for Diagnostic #   224 TRAC08
(PID.TID 0000.0001) SETDIAG: Allocate 35 x  1 Levels for Diagnostic #   236 TRAC09
(PID.TID 0000.0001) SETDIAG: Allocate 35 x  1 Levels for Diagnostic #   248 TRAC10
(PID.TID 0000.0001) SETDIAG: Allocate 35 x  1 Levels for Diagnostic #   260 TRAC11
(PID.TID 0000.0001) SETDIAG: Allocate 35 x  1 Levels for Diagnostic #   272 TRAC12
(PID.TID 0000.0001) SETDIAG: Allocate 35 x  1 Levels for Diagnostic #   284 TRAC13
(PID.TID 0000.0001) SETDIAG: Allocate 35 x  1 Levels for Diagnostic #   296 TRAC14
(PID.TID 0000.0001) SETDIAG: Allocate 35 x  1 Levels for Diagnostic #   308 TRAC15
(PID.TID 0000.0001) SETDIAG: Allocate 35 x  1 Levels for Diagnostic #   320 TRAC16
(PID.TID 0000.0001) SETDIAG: Allocate 35 x  1 Levels for Diagnostic #   332 TRAC17
(PID.TID 0000.0001) SETDIAG: Allocate 35 x  1 Levels for Diagnostic #   344 TRAC18
(PID.TID 0000.0001) SETDIAG: Allocate 35 x  1 Levels for Diagnostic #   356 TRAC19
(PID.TID 0000.0001) SETDIAG: Allocate 35 x  1 Levels for Diagnostic #   368 TRAC20
(PID.TID 0000.0001) SETDIAG: Allocate 35 x  1 Levels for Diagnostic #   380 TRAC21
(PID.TID 0000.0001) SETDIAG: Allocate 35 x  1 Levels for Diagnostic #   392 TRAC22
(PID.TID 0000.0001) SETDIAG: Allocate 35 x  1 Levels for Diagnostic #   404 TRAC23
(PID.TID 0000.0001) SETDIAG: Allocate 35 x  1 Levels for Diagnostic #   416 TRAC24
(PID.TID 0000.0001) SETDIAG: Allocate 35 x  1 Levels for Diagnostic #   428 TRAC25
(PID.TID 0000.0001) SETDIAG: Allocate 35 x  1 Levels for Diagnostic #   440 TRAC26
(PID.TID 0000.0001) SETDIAG: Allocate 35 x  1 Levels for Diagnostic #   452 TRAC27
(PID.TID 0000.0001) SETDIAG: Allocate 35 x  1 Levels for Diagnostic #   464 TRAC28
(PID.TID 0000.0001) SETDIAG: Allocate 35 x  1 Levels for Diagnostic #   476 TRAC29
(PID.TID 0000.0001) SETDIAG: Allocate 35 x  1 Levels for Diagnostic #   488 TRAC30
(PID.TID 0000.0001) SETDIAG: Allocate 35 x  1 Levels for Diagnostic #   500 TRAC31
(PID.TID 0000.0001) SETDIAG: Allocate 35 x  1 Levels for Diagnostic #   512 TRAC32
(PID.TID 0000.0001) SETDIAG: Allocate 35 x  1 Levels for Diagnostic #   524 TRAC33
(PID.TID 0000.0001) SETDIAG: Allocate 35 x  1 Levels for Diagnostic #   536 TRAC34
(PID.TID 0000.0001) SETDIAG: Allocate 35 x  1 Levels for Diagnostic #   548 TRAC35
(PID.TID 0000.0001) SETDIAG: Allocate 35 x  1 Levels for Diagnostic #   560 TRAC36
(PID.TID 0000.0001) SETDIAG: Allocate 35 x  1 Levels for Diagnostic #   572 TRAC37
(PID.TID 0000.0001) SETDIAG: Allocate 35 x  1 Levels for Diagnostic #   584 TRAC38
(PID.TID 0000.0001) SETDIAG: Allocate 35 x  1 Levels for Diagnostic #   596 TRAC39
(PID.TID 0000.0001) SETDIAG: Allocate 35 x  1 Levels for Diagnostic #   608 TRAC40
(PID.TID 0000.0001) SETDIAG: Allocate 35 x  1 Levels for Diagnostic #   620 TRAC41
(PID.TID 0000.0001) SETDIAG: Allocate 35 x  1 Levels for Diagnostic #   632 TRAC42
(PID.TID 0000.0001) SETDIAG: Allocate 35 x  1 Levels for Diagnostic #   644 TRAC43
(PID.TID 0000.0001) SETDIAG: Allocate 35 x  1 Levels for Diagnostic #   656 TRAC44
(PID.TID 0000.0001) SETDIAG: Allocate 35 x  1 Levels for Diagnostic #   668 TRAC45
(PID.TID 0000.0001) SETDIAG: Allocate 35 x  1 Levels for Diagnostic #   680 TRAC46
(PID.TID 0000.0001) SETDIAG: Allocate 35 x  1 Levels for Diagnostic #   692 TRAC47
(PID.TID 0000.0001) SETDIAG: Allocate 35 x  1 Levels for Diagnostic #   704 TRAC48
(PID.TID 0000.0001) SETDIAG: Allocate 35 x  1 Levels for Diagnostic #   716 TRAC49
(PID.TID 0000.0001) SETDIAG: Allocate 35 x  1 Levels for Diagnostic #   728 TRAC50
(PID.TID 0000.0001) SETDIAG: Allocate 35 x  1 Levels for Diagnostic #   740 TRAC51
(PID.TID 0000.0001) SETDIAG: Allocate 35 x  1 Levels for Diagnostic #   752 TRAC52
(PID.TID 0000.0001) SETDIAG: Allocate 35 x  1 Levels for Diagnostic #   764 TRAC53
(PID.TID 0000.0001) SETDIAG: Allocate 35 x  1 Levels for Diagnostic #   776 TRAC54
(PID.TID 0000.0001) SETDIAG: Allocate 35 x  1 Levels for Diagnostic #   788 TRAC55
(PID.TID 0000.0001) SETDIAG: Allocate 35 x  1 Levels for Diagnostic #   800 TRAC56
(PID.TID 0000.0001) SETDIAG: Allocate 35 x  1 Levels for Diagnostic #   812 TRAC57
(PID.TID 0000.0001) SETDIAG: Allocate 35 x  1 Levels for Diagnostic #   824 TRAC58
(PID.TID 0000.0001) SETDIAG: Allocate 35 x  1 Levels for Diagnostic #   836 TRAC59
(PID.TID 0000.0001) SETDIAG: Allocate 35 x  1 Levels for Diagnostic #   848 TRAC60
(PID.TID 0000.0001) SETDIAG: Allocate 35 x  1 Levels for Diagnostic #   860 TRAC61
(PID.TID 0000.0001) SETDIAG: Allocate 35 x  1 Levels for Diagnostic #   872 TRAC62
(PID.TID 0000.0001) SETDIAG: Allocate 35 x  1 Levels for Diagnostic #   884 TRAC63
(PID.TID 0000.0001) SETDIAG: Allocate 35 x  1 Levels for Diagnostic #   896 TRAC64
(PID.TID 0000.0001) SETDIAG: Allocate 35 x  1 Levels for Diagnostic #   908 TRAC65
(PID.TID 0000.0001) SETDIAG: Allocate 35 x  1 Levels for Diagnostic #   920 TRAC66
(PID.TID 0000.0001) SETDIAG: Allocate 35 x  1 Levels for Diagnostic #   932 TRAC67
(PID.TID 0000.0001) SETDIAG: Allocate 35 x  1 Levels for Diagnostic #   944 TRAC68
(PID.TID 0000.0001) SETDIAG: Allocate 35 x  1 Levels for Diagnostic #   956 TRAC69
(PID.TID 0000.0001) SETDIAG: Allocate 35 x  1 Levels for Diagnostic #   968 TRAC70
(PID.TID 0000.0001) SETDIAG: Allocate 35 x  1 Levels for Diagnostic #   980 TRAC71
(PID.TID 0000.0001) SETDIAG: Allocate 35 x  1 Levels for Diagnostic #   992 TRAC72
(PID.TID 0000.0001) SETDIAG: Allocate 35 x  1 Levels for Diagnostic #  1004 TRAC73
(PID.TID 0000.0001) SETDIAG: Allocate 35 x  1 Levels for Diagnostic #  1016 TRAC74
(PID.TID 0000.0001) SETDIAG: Allocate 35 x  1 Levels for Diagnostic #  1028 TRAC75
(PID.TID 0000.0001) SETDIAG: Allocate 35 x  1 Levels for Diagnostic #  1040 TRAC76
(PID.TID 0000.0001) SETDIAG: Allocate 35 x  1 Levels for Diagnostic #  1052 TRAC77
(PID.TID 0000.0001) SETDIAG: Allocate 35 x  1 Levels for Diagnostic #  1064 TRAC78
(PID.TID 0000.0001) SETDIAG: Allocate 35 x  1 Levels for Diagnostic #  1076 TRAC79
(PID.TID 0000.0001) SETDIAG: Allocate 35 x  1 Levels for Diagnostic #  1088 TRAC80
(PID.TID 0000.0001) SETDIAG: Allocate 35 x  1 Levels for Diagnostic #  1100 TRAC81
(PID.TID 0000.0001) SETDIAG: Allocate 35 x  1 Levels for Diagnostic #  1112 TRAC82
(PID.TID 0000.0001) SETDIAG: Allocate 35 x  1 Levels for Diagnostic #  1124 TRAC83
(PID.TID 0000.0001) SETDIAG: Allocate 35 x  1 Levels for Diagnostic #  1136 TRAC84
(PID.TID 0000.0001) SETDIAG: Allocate 35 x  1 Levels for Diagnostic #  1148 TRAC85
(PID.TID 0000.0001) SETDIAG: Allocate 35 x  1 Levels for Diagnostic #  1160 TRAC86
(PID.TID 0000.0001) SETDIAG: Allocate 35 x  1 Levels for Diagnostic #  1172 TRAC87
(PID.TID 0000.0001) SETDIAG: Allocate 35 x  1 Levels for Diagnostic #  1184 TRAC88
(PID.TID 0000.0001) SETDIAG: Allocate 35 x  1 Levels for Diagnostic #  1196 TRAC89
(PID.TID 0000.0001) SETDIAG: Allocate 35 x  1 Levels for Diagnostic #  1208 TRAC90
(PID.TID 0000.0001) SETDIAG: Allocate 35 x  1 Levels for Diagnostic #  1220 TRAC91
(PID.TID 0000.0001) SETDIAG: Allocate 35 x  1 Levels for Diagnostic #  1232 TRAC92
(PID.TID 0000.0001) SETDIAG: Allocate 35 x  1 Levels for Diagnostic #  1244 TRAC93
(PID.TID 0000.0001) SETDIAG: Allocate 35 x  1 Levels for Diagnostic #  1256 TRAC94
(PID.TID 0000.0001) SETDIAG: Allocate 35 x  1 Levels for Diagnostic #  1268 TRAC95
(PID.TID 0000.0001) SETDIAG: Allocate 35 x  1 Levels for Diagnostic #  1280 TRAC96
(PID.TID 0000.0001) SETDIAG: Allocate 35 x  1 Levels for Diagnostic #  1292 TRAC97
(PID.TID 0000.0001) SETDIAG: Allocate 35 x  1 Levels for Diagnostic #  1304 TRAC98
(PID.TID 0000.0001)   space allocated for all diagnostics:    3430 levels
(PID.TID 0000.0001) DIAGNOSTICS_SET_POINTERS: Set levels for Outp.Stream: darwin
(PID.TID 0000.0001)  Levels:       1.   2.   3.   4.   5.   6.   7.   8.   9.  10.  11.  12.  13.  14.  15.  16.  17.  18.  19.  20.
(PID.TID 0000.0001)  Levels:      21.  22.  23.  24.  25.  26.  27.  28.  29.  30.  31.  32.  33.  34.  35.
(PID.TID 0000.0001) DIAGNOSTICS_SET_POINTERS: done
(PID.TID 0000.0001) ------------------------------------------------------------
(PID.TID 0000.0001) DIAGSTATS_SET_REGIONS: define no region
(PID.TID 0000.0001) ------------------------------------------------------------
(PID.TID 0000.0001)   space allocated for all stats-diags:       0 levels
(PID.TID 0000.0001) DIAGSTATS_SET_POINTERS: done
(PID.TID 0000.0001) ------------------------------------------------------------
(PID.TID 0000.0001) %MON fCori_max                    =  -4.3855676645210050E-05
(PID.TID 0000.0001) %MON fCori_min                    =  -4.3855676645210050E-05
(PID.TID 0000.0001) %MON fCori_mean                   =  -4.3855676645210050E-05
(PID.TID 0000.0001) %MON fCori_sd                     =   0.0000000000000000E+00
(PID.TID 0000.0001) %MON fCoriG_max                   =  -4.5067801836624727E-05
(PID.TID 0000.0001) %MON fCoriG_min                   =  -4.5067801836624727E-05
(PID.TID 0000.0001) %MON fCoriG_mean                  =  -4.5067801836624727E-05
(PID.TID 0000.0001) %MON fCoriG_sd                    =   0.0000000000000000E+00
(PID.TID 0000.0001) %MON fCoriCos_max                 =   1.3909243610206993E-04
(PID.TID 0000.0001) %MON fCoriCos_min                 =   1.3909243610206993E-04
(PID.TID 0000.0001) %MON fCoriCos_mean                =   1.3909243610206993E-04
(PID.TID 0000.0001) %MON fCoriCos_sd                  =   0.0000000000000000E+00
(PID.TID 0000.0001) INI_CG2D: CG2D normalisation factor =  2.7288038648017932E-04
(PID.TID 0000.0001) 
(PID.TID 0000.0001) // =======================================================
(PID.TID 0000.0001) // Model configuration
(PID.TID 0000.0001) // =======================================================
(PID.TID 0000.0001) //
(PID.TID 0000.0001) // "Physical" paramters ( PARM01 in namelist )
(PID.TID 0000.0001) //
(PID.TID 0000.0001) buoyancyRelation = /* Type of relation to get Buoyancy */
(PID.TID 0000.0001)               'OCEANIC'
(PID.TID 0000.0001)     ;
(PID.TID 0000.0001) fluidIsAir   =  /* fluid major constituent is Air */
(PID.TID 0000.0001)                   F
(PID.TID 0000.0001)     ;
(PID.TID 0000.0001) fluidIsWater =  /* fluid major constituent is Water */
(PID.TID 0000.0001)                   T
(PID.TID 0000.0001)     ;
(PID.TID 0000.0001) usingPCoords =  /* use p (or p*) vertical coordinate */
(PID.TID 0000.0001)                   F
(PID.TID 0000.0001)     ;
(PID.TID 0000.0001) usingZCoords =  /* use z (or z*) vertical coordinate */
(PID.TID 0000.0001)                   T
(PID.TID 0000.0001)     ;
(PID.TID 0000.0001) tRef =   /* Reference temperature profile ( oC or K ) */
(PID.TID 0000.0001)                 2.650000000000000E+01,      /* K =  1 */
(PID.TID 0000.0001)                 2.610000000000000E+01,      /* K =  2 */
(PID.TID 0000.0001)                 2.600000000000000E+01,      /* K =  3 */
(PID.TID 0000.0001)                 2.550000000000000E+01,      /* K =  4 */
(PID.TID 0000.0001)                 2.540000000000000E+01,      /* K =  5 */
(PID.TID 0000.0001)                 2.490000000000000E+01,      /* K =  6 */
(PID.TID 0000.0001)                 2.450000000000000E+01,      /* K =  7 */
(PID.TID 0000.0001)                 2.400000000000000E+01,      /* K =  8 */
(PID.TID 0000.0001)                 2.370000000000000E+01,      /* K =  9 */
(PID.TID 0000.0001)                 2.330000000000000E+01,      /* K = 10 */
(PID.TID 0000.0001)                 2.310000000000000E+01,      /* K = 11 */
(PID.TID 0000.0001)                 2.280000000000000E+01,      /* K = 12 */
(PID.TID 0000.0001)                 2.250000000000000E+01,      /* K = 13 */
(PID.TID 0000.0001)                 2.210000000000000E+01,      /* K = 14 */
(PID.TID 0000.0001)                 2.160000000000000E+01,      /* K = 15 */
(PID.TID 0000.0001)                 2.060000000000000E+01,      /* K = 16 */
(PID.TID 0000.0001)                 1.950000000000000E+01,      /* K = 17 */
(PID.TID 0000.0001)                 1.840000000000000E+01,      /* K = 18 */
(PID.TID 0000.0001)                 1.730000000000000E+01,      /* K = 19 */
(PID.TID 0000.0001)                 1.660000000000000E+01,      /* K = 20 */
(PID.TID 0000.0001)                 1.550000000000000E+01,      /* K = 21 */
(PID.TID 0000.0001)                 1.460000000000000E+01,      /* K = 22 */
(PID.TID 0000.0001)                 1.380000000000000E+01,      /* K = 23 */
(PID.TID 0000.0001)                 1.310000000000000E+01,      /* K = 24 */
(PID.TID 0000.0001)                 1.160000000000000E+01,      /* K = 25 */
(PID.TID 0000.0001)                 1.010000000000000E+01,      /* K = 26 */
(PID.TID 0000.0001)                 7.700000000000000E+00,      /* K = 27 */
(PID.TID 0000.0001)                 5.300000000000000E+00,      /* K = 28 */
(PID.TID 0000.0001)                 4.100000000000000E+00,      /* K = 29 */
(PID.TID 0000.0001)     2 @  3.700000000000000E+00,             /* K = 30: 31 */
(PID.TID 0000.0001)                 3.400000000000000E+00,      /* K = 32 */
(PID.TID 0000.0001)                 3.000000000000000E+00,      /* K = 33 */
(PID.TID 0000.0001)                 2.800000000000000E+00,      /* K = 34 */
(PID.TID 0000.0001)                 2.600000000000000E+00       /* K = 35 */
(PID.TID 0000.0001)     ;
(PID.TID 0000.0001) sRef =   /* Reference salinity profile ( psu ) */
(PID.TID 0000.0001)    35 @  3.500000000000000E+01              /* K =  1: 35 */
(PID.TID 0000.0001)     ;
(PID.TID 0000.0001) viscAh  =   /* Lateral eddy viscosity ( m^2/s ) */
(PID.TID 0000.0001)                 0.000000000000000E+00
(PID.TID 0000.0001)     ;
(PID.TID 0000.0001) viscAhMax = /* Maximum lateral eddy viscosity ( m^2/s ) */
(PID.TID 0000.0001)                 1.000000000000000E+21
(PID.TID 0000.0001)     ;
(PID.TID 0000.0001) viscAhGrid = /* Grid dependent lateral eddy viscosity ( non-dim. ) */
(PID.TID 0000.0001)                 0.000000000000000E+00
(PID.TID 0000.0001)     ;
(PID.TID 0000.0001) useFullLeith = /* Use Full Form of Leith Viscosity on/off flag*/
(PID.TID 0000.0001)                   F
(PID.TID 0000.0001)     ;
(PID.TID 0000.0001) useStrainTensionVisc= /* Use StrainTension Form of Viscous Operator flag*/
(PID.TID 0000.0001)                   F
(PID.TID 0000.0001)     ;
(PID.TID 0000.0001) useAreaViscLength = /* Use area for visc length instead of geom. mean*/
(PID.TID 0000.0001)                   F
(PID.TID 0000.0001)     ;
(PID.TID 0000.0001) viscC2leith = /* Leith harmonic visc. factor (on grad(vort),non-dim.) */
(PID.TID 0000.0001)                 0.000000000000000E+00
(PID.TID 0000.0001)     ;
(PID.TID 0000.0001) viscC2leithD = /* Leith harmonic viscosity factor (on grad(div),non-dim.)*/
(PID.TID 0000.0001)                 0.000000000000000E+00
(PID.TID 0000.0001)     ;
(PID.TID 0000.0001) viscC2smag = /* Smagorinsky harmonic viscosity factor (non-dim.) */
(PID.TID 0000.0001)                 0.000000000000000E+00
(PID.TID 0000.0001)     ;
(PID.TID 0000.0001) viscA4  =   /* Lateral biharmonic viscosity ( m^4/s ) */
(PID.TID 0000.0001)                 0.000000000000000E+00
(PID.TID 0000.0001)     ;
(PID.TID 0000.0001) viscA4Max = /* Maximum biharmonic viscosity ( m^2/s ) */
(PID.TID 0000.0001)                 1.000000000000000E+21
(PID.TID 0000.0001)     ;
(PID.TID 0000.0001) viscA4Grid = /* Grid dependent biharmonic viscosity ( non-dim. ) */
(PID.TID 0000.0001)                 0.000000000000000E+00
(PID.TID 0000.0001)     ;
(PID.TID 0000.0001) viscC4leith = /* Leith biharm viscosity factor (on grad(vort), non-dim.)*/
(PID.TID 0000.0001)                 0.000000000000000E+00
(PID.TID 0000.0001)     ;
(PID.TID 0000.0001) viscC4leithD = /* Leith biharm viscosity factor (on grad(div), non-dim.) */
(PID.TID 0000.0001)                 0.000000000000000E+00
(PID.TID 0000.0001)     ;
(PID.TID 0000.0001) viscC4Smag = /* Smagorinsky biharm viscosity factor (non-dim) */
(PID.TID 0000.0001)                 0.000000000000000E+00
(PID.TID 0000.0001)     ;
(PID.TID 0000.0001) no_slip_sides =  /* Viscous BCs: No-slip sides */
(PID.TID 0000.0001)                   F
(PID.TID 0000.0001)     ;
(PID.TID 0000.0001) sideDragFactor = /* side-drag scaling factor (non-dim) */
(PID.TID 0000.0001)                 2.000000000000000E+00
(PID.TID 0000.0001)     ;
(PID.TID 0000.0001) viscArNr = /* vertical profile of vertical viscosity ( m^2/s )*/
(PID.TID 0000.0001)    35 @  0.000000000000000E+00              /* K =  1: 35 */
(PID.TID 0000.0001)     ;
(PID.TID 0000.0001) no_slip_bottom =  /* Viscous BCs: No-slip bottom */
(PID.TID 0000.0001)                   T
(PID.TID 0000.0001)     ;
(PID.TID 0000.0001) bottomDragLinear = /* linear bottom-drag coefficient ( m/s ) */
(PID.TID 0000.0001)                 0.000000000000000E+00
(PID.TID 0000.0001)     ;
(PID.TID 0000.0001) bottomDragQuadratic = /* quadratic bottom-drag coefficient (-) */
(PID.TID 0000.0001)                 0.000000000000000E+00
(PID.TID 0000.0001)     ;
(PID.TID 0000.0001) diffKhT =   /* Laplacian diffusion of heat laterally ( m^2/s ) */
(PID.TID 0000.0001)                 1.000000000000000E+02
(PID.TID 0000.0001)     ;
(PID.TID 0000.0001) diffK4T =   /* Biharmonic diffusion of heat laterally ( m^4/s ) */
(PID.TID 0000.0001)                 0.000000000000000E+00
(PID.TID 0000.0001)     ;
(PID.TID 0000.0001) diffKhS =   /* Laplacian diffusion of salt laterally ( m^2/s ) */
(PID.TID 0000.0001)                 0.000000000000000E+00
(PID.TID 0000.0001)     ;
(PID.TID 0000.0001) diffK4S =   /* Biharmonic diffusion of salt laterally ( m^4/s ) */
(PID.TID 0000.0001)                 0.000000000000000E+00
(PID.TID 0000.0001)     ;
(PID.TID 0000.0001) diffKrNrT = /* vertical profile of vertical diffusion of Temp ( m^2/s )*/
(PID.TID 0000.0001)    35 @  1.000000000000000E-04              /* K =  1: 35 */
(PID.TID 0000.0001)     ;
(PID.TID 0000.0001) diffKrNrS = /* vertical profile of vertical diffusion of Salt ( m^2/s )*/
(PID.TID 0000.0001)    35 @  0.000000000000000E+00              /* K =  1: 35 */
(PID.TID 0000.0001)     ;
(PID.TID 0000.0001) diffKrBL79surf = /* Surface diffusion for Bryan and Lewis 79 ( m^2/s ) */
(PID.TID 0000.0001)                 0.000000000000000E+00
(PID.TID 0000.0001)     ;
(PID.TID 0000.0001) diffKrBL79deep = /* Deep diffusion for Bryan and Lewis 1979 ( m^2/s ) */
(PID.TID 0000.0001)                 0.000000000000000E+00
(PID.TID 0000.0001)     ;
(PID.TID 0000.0001) diffKrBL79scl = /* Depth scale for Bryan and Lewis 1979 ( m ) */
(PID.TID 0000.0001)                 2.000000000000000E+02
(PID.TID 0000.0001)     ;
(PID.TID 0000.0001) diffKrBL79Ho = /* Turning depth for Bryan and Lewis 1979 ( m ) */
(PID.TID 0000.0001)                -2.000000000000000E+03
(PID.TID 0000.0001)     ;
(PID.TID 0000.0001) ivdc_kappa = /* Implicit Vertical Diffusivity for Convection ( m^2/s) */
(PID.TID 0000.0001)                 0.000000000000000E+00
(PID.TID 0000.0001)     ;
(PID.TID 0000.0001) hMixCriteria=  /* Criteria for mixed-layer diagnostic */
(PID.TID 0000.0001)                -8.000000000000000E-01
(PID.TID 0000.0001)     ;
(PID.TID 0000.0001) dRhoSmall =  /* Parameter for mixed-layer diagnostic */
(PID.TID 0000.0001)                 1.000000000000000E-06
(PID.TID 0000.0001)     ;
(PID.TID 0000.0001) hMixSmooth=  /* Smoothing parameter for mixed-layer diagnostic */
(PID.TID 0000.0001)                 0.000000000000000E+00
(PID.TID 0000.0001)     ;
(PID.TID 0000.0001) eosType =  /* Type of Equation of State */
(PID.TID 0000.0001)               'JMD95Z'
(PID.TID 0000.0001)     ;
(PID.TID 0000.0001) celsius2K = /* 0 degree Celsius converted to Kelvin ( K ) */
(PID.TID 0000.0001)                 2.731500000000000E+02
(PID.TID 0000.0001)     ;
(PID.TID 0000.0001) rhoConst  = /* Reference density (Boussinesq)  ( kg/m^3 ) */
(PID.TID 0000.0001)                 9.998000000000000E+02
(PID.TID 0000.0001)     ;
(PID.TID 0000.0001) rhoFacC = /* normalized Reference density @ cell-Center (-) */
(PID.TID 0000.0001)    35 @  1.000000000000000E+00              /* K =  1: 35 */
(PID.TID 0000.0001)     ;
(PID.TID 0000.0001) rhoFacF = /* normalized Reference density @ W-Interface (-) */
(PID.TID 0000.0001)    36 @  1.000000000000000E+00              /* K =  1: 36 */
(PID.TID 0000.0001)     ;
(PID.TID 0000.0001) rhoConstFresh = /* Fresh-water reference density ( kg/m^3 ) */
(PID.TID 0000.0001)                 9.998000000000000E+02
(PID.TID 0000.0001)     ;
(PID.TID 0000.0001) gravity =   /* Gravitational acceleration ( m/s^2 ) */
(PID.TID 0000.0001)                 9.810000000000000E+00
(PID.TID 0000.0001)     ;
(PID.TID 0000.0001) gBaro =   /* Barotropic gravity ( m/s^2 ) */
(PID.TID 0000.0001)                 9.810000000000000E+00
(PID.TID 0000.0001)     ;
(PID.TID 0000.0001) rotationPeriod =   /* Rotation Period ( s ) */
(PID.TID 0000.0001)                 8.616400000000000E+04
(PID.TID 0000.0001)     ;
(PID.TID 0000.0001) omega =   /* Angular velocity ( rad/s ) */
(PID.TID 0000.0001)                 7.292123516990375E-05
(PID.TID 0000.0001)     ;
(PID.TID 0000.0001) f0 =   /* Reference coriolis parameter ( 1/s ) */
(PID.TID 0000.0001)                 1.000000000000000E-04
(PID.TID 0000.0001)     ;
(PID.TID 0000.0001) beta =   /* Beta ( 1/(m.s) ) */
(PID.TID 0000.0001)                 9.999999999999999E-12
(PID.TID 0000.0001)     ;
(PID.TID 0000.0001) fPrime =   /* Second coriolis parameter ( 1/s ) */
(PID.TID 0000.0001)                 0.000000000000000E+00
(PID.TID 0000.0001)     ;
(PID.TID 0000.0001) rigidLid =   /* Rigid lid on/off flag */
(PID.TID 0000.0001)                   T
(PID.TID 0000.0001)     ;
(PID.TID 0000.0001) implicitFreeSurface =   /* Implicit free surface on/off flag */
(PID.TID 0000.0001)                   F
(PID.TID 0000.0001)     ;
(PID.TID 0000.0001) freeSurfFac =   /* Implicit free surface factor */
(PID.TID 0000.0001)                 0.000000000000000E+00
(PID.TID 0000.0001)     ;
(PID.TID 0000.0001) implicSurfPress =  /* Surface Pressure implicit factor (0-1)*/
(PID.TID 0000.0001)                 1.000000000000000E+00
(PID.TID 0000.0001)     ;
(PID.TID 0000.0001) implicDiv2Dflow =  /* Barot. Flow Div. implicit factor (0-1)*/
(PID.TID 0000.0001)                 1.000000000000000E+00
(PID.TID 0000.0001)     ;
(PID.TID 0000.0001) uniformLin_PhiSurf = /* use uniform Bo_surf on/off flag*/
(PID.TID 0000.0001)                   T
(PID.TID 0000.0001)     ;
(PID.TID 0000.0001) uniformFreeSurfLev = /* free-surface level-index is uniform */
(PID.TID 0000.0001)                   T
(PID.TID 0000.0001)     ;
(PID.TID 0000.0001) hFacMin =   /* minimum partial cell factor (hFac) */
(PID.TID 0000.0001)                 1.000000000000000E+00
(PID.TID 0000.0001)     ;
(PID.TID 0000.0001) hFacMinDr = /* minimum partial cell thickness ( m) */
(PID.TID 0000.0001)                 1.000000000000000E+00
(PID.TID 0000.0001)     ;
(PID.TID 0000.0001) exactConserv =  /* Exact Volume Conservation on/off flag*/
(PID.TID 0000.0001)                   F
(PID.TID 0000.0001)     ;
(PID.TID 0000.0001) linFSConserveTr = /* Tracer correction for Lin Free Surface on/off flag*/
(PID.TID 0000.0001)                   F
(PID.TID 0000.0001)     ;
(PID.TID 0000.0001) nonlinFreeSurf = /* Non-linear Free Surf. options (-1,0,1,2,3)*/
(PID.TID 0000.0001)                       0
(PID.TID 0000.0001)      -1,0= Off ; 1,2,3= On, 2=+rescale gU,gV, 3=+update cg2d solv.
(PID.TID 0000.0001)     ;
(PID.TID 0000.0001) hFacInf =   /* lower threshold for hFac (nonlinFreeSurf only)*/
(PID.TID 0000.0001)                 2.000000000000000E-01
(PID.TID 0000.0001)     ;
(PID.TID 0000.0001) hFacSup =   /* upper threshold for hFac (nonlinFreeSurf only)*/
(PID.TID 0000.0001)                 2.000000000000000E+00
(PID.TID 0000.0001)     ;
(PID.TID 0000.0001) select_rStar = /* r* Vertical coord. options (=0 r coord.; >0 uses r*)*/
(PID.TID 0000.0001)                       0
(PID.TID 0000.0001)     ;
(PID.TID 0000.0001) useRealFreshWaterFlux = /* Real Fresh Water Flux on/off flag*/
(PID.TID 0000.0001)                   F
(PID.TID 0000.0001)     ;
(PID.TID 0000.0001) temp_EvPrRn = /* Temp. of Evap/Prec/R (UNSET=use local T)(oC)*/
(PID.TID 0000.0001)                 1.234567000000000E+05
(PID.TID 0000.0001)     ;
(PID.TID 0000.0001) salt_EvPrRn = /* Salin. of Evap/Prec/R (UNSET=use local S)(psu)*/
(PID.TID 0000.0001)                 0.000000000000000E+00
(PID.TID 0000.0001)     ;
(PID.TID 0000.0001) selectAddFluid = /* option for mass source/sink of fluid (=0: off) */
(PID.TID 0000.0001)                       0
(PID.TID 0000.0001)     ;
(PID.TID 0000.0001) temp_addMass = /* Temp. of addMass array (UNSET=use local T)(oC)*/
(PID.TID 0000.0001)                 1.234567000000000E+05
(PID.TID 0000.0001)     ;
(PID.TID 0000.0001) salt_addMass = /* Salin. of addMass array (UNSET=use local S)(psu)*/
(PID.TID 0000.0001)                 0.000000000000000E+00
(PID.TID 0000.0001)     ;
(PID.TID 0000.0001) convertFW2Salt = /* convert F.W. Flux to Salt Flux (-1=use local S)(psu)*/
(PID.TID 0000.0001)                 3.500000000000000E+01
(PID.TID 0000.0001)     ;
(PID.TID 0000.0001) use3Dsolver = /* use 3-D pressure solver on/off flag */
(PID.TID 0000.0001)                   F
(PID.TID 0000.0001)     ;
(PID.TID 0000.0001) nonHydrostatic =  /* Non-Hydrostatic on/off flag */
(PID.TID 0000.0001)                   F
(PID.TID 0000.0001)     ;
(PID.TID 0000.0001) nh_Am2 = /* Non-Hydrostatic terms scaling factor */
(PID.TID 0000.0001)                 1.000000000000000E+00
(PID.TID 0000.0001)     ;
(PID.TID 0000.0001) implicitNHPress = /* Non-Hyd Pressure implicit factor (0-1)*/
(PID.TID 0000.0001)                 1.000000000000000E+00
(PID.TID 0000.0001)     ;
(PID.TID 0000.0001) selectNHfreeSurf = /* Non-Hyd (free-)Surface option */
(PID.TID 0000.0001)                       0
(PID.TID 0000.0001)     ;
(PID.TID 0000.0001) quasiHydrostatic = /* Quasi-Hydrostatic on/off flag */
(PID.TID 0000.0001)                   F
(PID.TID 0000.0001)     ;
(PID.TID 0000.0001) calc_wVelocity = /* vertical velocity calculation on/off flag */
(PID.TID 0000.0001)                   F
(PID.TID 0000.0001)     ;
(PID.TID 0000.0001) momStepping =  /* Momentum equation on/off flag */
(PID.TID 0000.0001)                   F
(PID.TID 0000.0001)     ;
(PID.TID 0000.0001) vectorInvariantMomentum= /* Vector-Invariant Momentum on/off */
(PID.TID 0000.0001)                   F
(PID.TID 0000.0001)     ;
(PID.TID 0000.0001) momAdvection =  /* Momentum advection on/off flag */
(PID.TID 0000.0001)                   F
(PID.TID 0000.0001)     ;
(PID.TID 0000.0001) momViscosity =  /* Momentum viscosity on/off flag */
(PID.TID 0000.0001)                   F
(PID.TID 0000.0001)     ;
(PID.TID 0000.0001) momImplVertAdv= /* Momentum implicit vert. advection on/off*/
(PID.TID 0000.0001)                   F
(PID.TID 0000.0001)     ;
(PID.TID 0000.0001) implicitViscosity = /* Implicit viscosity on/off flag */
(PID.TID 0000.0001)                   F
(PID.TID 0000.0001)     ;
(PID.TID 0000.0001) metricTerms =  /* metric-Terms on/off flag */
(PID.TID 0000.0001)                   T
(PID.TID 0000.0001)     ;
(PID.TID 0000.0001) useNHMTerms = /* Non-Hydrostatic Metric-Terms on/off */
(PID.TID 0000.0001)                   F
(PID.TID 0000.0001)     ;
(PID.TID 0000.0001) selectCoriMap = /* Coriolis Map options (0,1,2,3)*/
(PID.TID 0000.0001)                       2
(PID.TID 0000.0001)     0= f-Plane ; 1= Beta-Plane ; 2= Spherical ; 3= read from file
(PID.TID 0000.0001)     ;
(PID.TID 0000.0001) use3dCoriolis = /* 3-D Coriolis on/off flag */
(PID.TID 0000.0001)                   F
(PID.TID 0000.0001)     ;
(PID.TID 0000.0001) useCoriolis =  /* Coriolis on/off flag */
(PID.TID 0000.0001)                   F
(PID.TID 0000.0001)     ;
(PID.TID 0000.0001) useCDscheme =  /* CD scheme on/off flag */
(PID.TID 0000.0001)                   F
(PID.TID 0000.0001)     ;
(PID.TID 0000.0001) useEnergyConservingCoriolis= /* Flx-Form Coriolis scheme flag */
(PID.TID 0000.0001)                   F
(PID.TID 0000.0001)     ;
(PID.TID 0000.0001) useJamartWetPoints= /* Coriolis WetPoints method flag */
(PID.TID 0000.0001)                   F
(PID.TID 0000.0001)     ;
(PID.TID 0000.0001) useJamartMomAdv= /* V.I Non-linear terms Jamart flag */
(PID.TID 0000.0001)                   F
(PID.TID 0000.0001)     ;
(PID.TID 0000.0001) useAbsVorticity= /* V.I Works with f+zeta in Coriolis */
(PID.TID 0000.0001)                   F
(PID.TID 0000.0001)     ;
(PID.TID 0000.0001) selectVortScheme= /* V.I Scheme selector for Vorticity-Term */
(PID.TID 0000.0001)               123456789
(PID.TID 0000.0001)    = 0 : enstrophy (Shallow-Water Eq.) conserving scheme by Sadourny, JAS 75
(PID.TID 0000.0001)    = 1 : same as 0 with modified hFac
(PID.TID 0000.0001)    = 2 : energy conserving scheme (used by Sadourny in JAS 75 paper)
(PID.TID 0000.0001)    = 3 : energy (general) and enstrophy (2D, nonDiv.) conserving scheme
(PID.TID 0000.0001)          from Sadourny (Burridge & Haseler, ECMWF Rep.4, 1977)
(PID.TID 0000.0001)     ;
(PID.TID 0000.0001) upwindVorticity= /* V.I Upwind bias vorticity flag */
(PID.TID 0000.0001)                   F
(PID.TID 0000.0001)     ;
(PID.TID 0000.0001) highOrderVorticity= /* V.I High order vort. advect. flag */
(PID.TID 0000.0001)                   F
(PID.TID 0000.0001)     ;
(PID.TID 0000.0001) upwindShear= /* V.I Upwind vertical Shear advection flag */
(PID.TID 0000.0001)                   F
(PID.TID 0000.0001)     ;
(PID.TID 0000.0001) selectKEscheme= /* V.I Kinetic Energy scheme selector */
(PID.TID 0000.0001)                       0
(PID.TID 0000.0001)     ;
(PID.TID 0000.0001) momForcing =  /* Momentum forcing on/off flag */
(PID.TID 0000.0001)                   F
(PID.TID 0000.0001)     ;
(PID.TID 0000.0001) momPressureForcing =  /* Momentum pressure term on/off flag */
(PID.TID 0000.0001)                   F
(PID.TID 0000.0001)     ;
(PID.TID 0000.0001) implicitIntGravWave= /* Implicit Internal Gravity Wave flag */
(PID.TID 0000.0001)                   F
(PID.TID 0000.0001)     ;
(PID.TID 0000.0001) staggerTimeStep =    /* Stagger time stepping on/off flag */
(PID.TID 0000.0001)                   F
(PID.TID 0000.0001)     ;
(PID.TID 0000.0001) doResetHFactors = /* reset thickness factors @ each time-step */
(PID.TID 0000.0001)                   F
(PID.TID 0000.0001)     ;
(PID.TID 0000.0001) multiDimAdvection =  /* enable/disable Multi-Dim Advection */
(PID.TID 0000.0001)                   T
(PID.TID 0000.0001)     ;
(PID.TID 0000.0001) useMultiDimAdvec =   /* Multi-Dim Advection is/is-not used */
(PID.TID 0000.0001)                   T
(PID.TID 0000.0001)     ;
(PID.TID 0000.0001) implicitDiffusion = /* Implicit Diffusion on/off flag */
(PID.TID 0000.0001)                   T
(PID.TID 0000.0001)     ;
(PID.TID 0000.0001) tempStepping =  /* Temperature equation on/off flag */
(PID.TID 0000.0001)                   T
(PID.TID 0000.0001)     ;
(PID.TID 0000.0001) tempAdvection = /* Temperature advection on/off flag */
(PID.TID 0000.0001)                   T
(PID.TID 0000.0001)     ;
(PID.TID 0000.0001) tempImplVertAdv = /* Temp. implicit vert. advection on/off */
(PID.TID 0000.0001)                   F
(PID.TID 0000.0001)     ;
(PID.TID 0000.0001) tempForcing  =  /* Temperature forcing on/off flag */
(PID.TID 0000.0001)                   T
(PID.TID 0000.0001)     ;
(PID.TID 0000.0001) doThetaClimRelax = /* apply SST relaxation on/off flag */
(PID.TID 0000.0001)                   T
(PID.TID 0000.0001)     ;
(PID.TID 0000.0001) tempIsActiveTr = /* Temp. is a dynamically Active Tracer */
(PID.TID 0000.0001)                   F
(PID.TID 0000.0001)     ;
(PID.TID 0000.0001) saltStepping =  /* Salinity equation on/off flag */
(PID.TID 0000.0001)                   F
(PID.TID 0000.0001)     ;
(PID.TID 0000.0001) saltAdvection = /* Salinity advection on/off flag */
(PID.TID 0000.0001)                   F
(PID.TID 0000.0001)     ;
(PID.TID 0000.0001) saltImplVertAdv = /* Sali. implicit vert. advection on/off */
(PID.TID 0000.0001)                   F
(PID.TID 0000.0001)     ;
(PID.TID 0000.0001) saltForcing  =  /* Salinity forcing on/off flag */
(PID.TID 0000.0001)                   F
(PID.TID 0000.0001)     ;
(PID.TID 0000.0001) doSaltClimRelax = /* apply SSS relaxation on/off flag */
(PID.TID 0000.0001)                   F
(PID.TID 0000.0001)     ;
(PID.TID 0000.0001) saltIsActiveTr = /* Salt  is a dynamically Active Tracer */
(PID.TID 0000.0001)                   F
(PID.TID 0000.0001)     ;
(PID.TID 0000.0001)  readBinaryPrec = /* Precision used for reading binary files */
(PID.TID 0000.0001)                      32
(PID.TID 0000.0001)     ;
(PID.TID 0000.0001) writeBinaryPrec = /* Precision used for writing binary files */
(PID.TID 0000.0001)                      64
(PID.TID 0000.0001)     ;
(PID.TID 0000.0001)  globalFiles = /* write "global" (=not per tile) files */
(PID.TID 0000.0001)                   F
(PID.TID 0000.0001)     ;
(PID.TID 0000.0001)  useSingleCpuIO = /* only master MPI process does I/O */
(PID.TID 0000.0001)                   T
(PID.TID 0000.0001)     ;
(PID.TID 0000.0001) /* debLev[*]  : level of debug & auxiliary message printing */
(PID.TID 0000.0001) debLevZero =  0 ; /* level of disabled aux. msg printing */
(PID.TID 0000.0001)    debLevA =  1 ; /* level of minimum  aux. msg printing */
(PID.TID 0000.0001)    debLevB =  2 ; /* level of low aux. print (report read-file opening)*/
(PID.TID 0000.0001)    debLevC =  3 ; /* level of moderate debug prt (most pkgs debug msg) */
(PID.TID 0000.0001)    debLevD =  4 ; /* level of enhanced debug prt (add DEBUG_STATS prt) */
(PID.TID 0000.0001)    debLevE =  5 ; /* level of extensive debug printing */
(PID.TID 0000.0001) debugLevel =  /* select debug printing level */
(PID.TID 0000.0001)                       2
(PID.TID 0000.0001)     ;
(PID.TID 0000.0001) //
(PID.TID 0000.0001) // Elliptic solver(s) paramters ( PARM02 in namelist )
(PID.TID 0000.0001) //
(PID.TID 0000.0001) cg2dMaxIters =   /* Upper limit on 2d con. grad iterations  */
(PID.TID 0000.0001)                     300
(PID.TID 0000.0001)     ;
(PID.TID 0000.0001) cg2dChkResFreq =   /* 2d con. grad convergence test frequency */
(PID.TID 0000.0001)                       1
(PID.TID 0000.0001)     ;
(PID.TID 0000.0001) cg2dUseMinResSol= /* use cg2d last-iter(=0) / min-resid.(=1) solution */
(PID.TID 0000.0001)                       0
(PID.TID 0000.0001)     ;
(PID.TID 0000.0001) cg2dTargetResidual =   /* 2d con. grad target residual  */
(PID.TID 0000.0001)                 1.000000000000000E-07
(PID.TID 0000.0001)     ;
(PID.TID 0000.0001) cg2dTargetResWunit =   /* CG2d target residual [W units] */
(PID.TID 0000.0001)                -1.000000000000000E+00
(PID.TID 0000.0001)     ;
(PID.TID 0000.0001) cg2dPreCondFreq =   /* Freq. for updating cg2d preconditioner */
(PID.TID 0000.0001)                       1
(PID.TID 0000.0001)     ;
(PID.TID 0000.0001) useSRCGSolver =  /* use single reduction CG solver(s) */
(PID.TID 0000.0001)                   F
(PID.TID 0000.0001)     ;
(PID.TID 0000.0001) printResidualFreq = /* Freq. for printing CG residual */
(PID.TID 0000.0001)                       0
(PID.TID 0000.0001)     ;
(PID.TID 0000.0001) //
(PID.TID 0000.0001) // Time stepping paramters ( PARM03 in namelist )
(PID.TID 0000.0001) //
(PID.TID 0000.0001) deltaTMom =   /* Momentum equation timestep ( s ) */
(PID.TID 0000.0001)                 3.600000000000000E+03
(PID.TID 0000.0001)     ;
(PID.TID 0000.0001) deltaTFreeSurf = /* FreeSurface equation timestep ( s ) */
(PID.TID 0000.0001)                 3.600000000000000E+03
(PID.TID 0000.0001)     ;
(PID.TID 0000.0001) dTtracerLev =  /* Tracer equation timestep ( s ) */
(PID.TID 0000.0001)    35 @  3.600000000000000E+03              /* K =  1: 35 */
(PID.TID 0000.0001)     ;
(PID.TID 0000.0001) deltaTClock  =   /* Model clock timestep ( s ) */
(PID.TID 0000.0001)                 3.600000000000000E+03
(PID.TID 0000.0001)     ;
(PID.TID 0000.0001) cAdjFreq =   /* Convective adjustment interval ( s ) */
(PID.TID 0000.0001)                 3.600000000000000E+03
(PID.TID 0000.0001)     ;
(PID.TID 0000.0001) momForcingOutAB = /* =1: take Momentum Forcing out of Adams-Bash. stepping */
(PID.TID 0000.0001)                       0
(PID.TID 0000.0001)     ;
(PID.TID 0000.0001) tracForcingOutAB = /* =1: take T,S,pTr Forcing out of Adams-Bash. stepping */
(PID.TID 0000.0001)                       0
(PID.TID 0000.0001)     ;
(PID.TID 0000.0001) momDissip_In_AB = /* put Dissipation Tendency in Adams-Bash. stepping */
(PID.TID 0000.0001)                   T
(PID.TID 0000.0001)     ;
(PID.TID 0000.0001) doAB_onGtGs = /* apply AB on Tendencies (rather than on T,S)*/
(PID.TID 0000.0001)                   T
(PID.TID 0000.0001)     ;
(PID.TID 0000.0001) abEps =   /* Adams-Bashforth-2 stabilizing weight */
(PID.TID 0000.0001)                 1.000000000000000E-01
(PID.TID 0000.0001)     ;
(PID.TID 0000.0001) pickupStrictlyMatch= /* stop if pickup do not strictly match */
(PID.TID 0000.0001)                   T
(PID.TID 0000.0001)     ;
(PID.TID 0000.0001) nIter0   =   /* Run starting timestep number */
(PID.TID 0000.0001)                       0
(PID.TID 0000.0001)     ;
(PID.TID 0000.0001) nTimeSteps = /* Number of timesteps */
(PID.TID 0000.0001)                       4
(PID.TID 0000.0001)     ;
(PID.TID 0000.0001) nEndIter =   /* Run ending timestep number */
(PID.TID 0000.0001)                       4
(PID.TID 0000.0001)     ;
(PID.TID 0000.0001) baseTime =   /* Model base time ( s ) */
(PID.TID 0000.0001)                 0.000000000000000E+00
(PID.TID 0000.0001)     ;
(PID.TID 0000.0001) startTime =  /* Run start time ( s ) */
(PID.TID 0000.0001)                 0.000000000000000E+00
(PID.TID 0000.0001)     ;
(PID.TID 0000.0001) endTime  =   /* Integration ending time ( s ) */
(PID.TID 0000.0001)                 1.440000000000000E+04
(PID.TID 0000.0001)     ;
(PID.TID 0000.0001) pChkPtFreq = /* Permanent restart/pickup file interval ( s ) */
(PID.TID 0000.0001)                 3.110400000000000E+07
(PID.TID 0000.0001)     ;
(PID.TID 0000.0001) chkPtFreq  = /* Rolling restart/pickup file interval ( s ) */
(PID.TID 0000.0001)                 3.110400000000000E+07
(PID.TID 0000.0001)     ;
(PID.TID 0000.0001) pickup_write_mdsio =   /* Model IO flag. */
(PID.TID 0000.0001)                   T
(PID.TID 0000.0001)     ;
(PID.TID 0000.0001) pickup_read_mdsio =   /* Model IO flag. */
(PID.TID 0000.0001)                   T
(PID.TID 0000.0001)     ;
(PID.TID 0000.0001) pickup_write_mnc =   /* Model IO flag. */
(PID.TID 0000.0001)                   F
(PID.TID 0000.0001)     ;
(PID.TID 0000.0001) pickup_read_mnc =   /* Model IO flag. */
(PID.TID 0000.0001)                   F
(PID.TID 0000.0001)     ;
(PID.TID 0000.0001) pickup_write_immed =   /* Model IO flag. */
(PID.TID 0000.0001)                   F
(PID.TID 0000.0001)     ;
(PID.TID 0000.0001) writePickupAtEnd =   /* Model IO flag. */
(PID.TID 0000.0001)                   T
(PID.TID 0000.0001)     ;
(PID.TID 0000.0001) dumpFreq =   /* Model state write out interval ( s ). */
(PID.TID 0000.0001)                 3.600000000000000E+03
(PID.TID 0000.0001)     ;
(PID.TID 0000.0001) dumpInitAndLast= /* write out Initial & Last iter. model state */
(PID.TID 0000.0001)                   T
(PID.TID 0000.0001)     ;
(PID.TID 0000.0001) snapshot_mdsio =   /* Model IO flag. */
(PID.TID 0000.0001)                   F
(PID.TID 0000.0001)     ;
(PID.TID 0000.0001) snapshot_mnc =   /* Model IO flag. */
(PID.TID 0000.0001)                   T
(PID.TID 0000.0001)     ;
(PID.TID 0000.0001) monitorFreq =   /* Monitor output interval ( s ). */
(PID.TID 0000.0001)                 1.000000000000000E+00
(PID.TID 0000.0001)     ;
(PID.TID 0000.0001) monitorSelect = /* select group of variables to monitor */
(PID.TID 0000.0001)                       3
(PID.TID 0000.0001)     ;
(PID.TID 0000.0001) monitor_stdio =   /* Model IO flag. */
(PID.TID 0000.0001)                   T
(PID.TID 0000.0001)     ;
(PID.TID 0000.0001) monitor_mnc =   /* Model IO flag. */
(PID.TID 0000.0001)                   F
(PID.TID 0000.0001)     ;
(PID.TID 0000.0001) externForcingPeriod =   /* forcing period (s) */
(PID.TID 0000.0001)                 2.592000000000000E+06
(PID.TID 0000.0001)     ;
(PID.TID 0000.0001) externForcingCycle =   /* period of the cyle (s). */
(PID.TID 0000.0001)                 3.110400000000000E+07
(PID.TID 0000.0001)     ;
(PID.TID 0000.0001) tauThetaClimRelax =   /* relaxation time scale (s) */
(PID.TID 0000.0001)                 2.592000000000000E+05
(PID.TID 0000.0001)     ;
(PID.TID 0000.0001) tauSaltClimRelax =   /* relaxation time scale (s) */
(PID.TID 0000.0001)                 0.000000000000000E+00
(PID.TID 0000.0001)     ;
(PID.TID 0000.0001) latBandClimRelax =   /* max. Lat. where relaxation */
(PID.TID 0000.0001)                 1.800000000000000E+02
(PID.TID 0000.0001)     ;
(PID.TID 0000.0001) //
(PID.TID 0000.0001) // Gridding paramters ( PARM04 in namelist )
(PID.TID 0000.0001) //
(PID.TID 0000.0001) usingCartesianGrid = /* Cartesian coordinates flag ( True/False ) */
(PID.TID 0000.0001)                   F
(PID.TID 0000.0001)     ;
(PID.TID 0000.0001) usingCylindricalGrid = /* Cylindrical coordinates flag ( True/False ) */
(PID.TID 0000.0001)                   F
(PID.TID 0000.0001)     ;
(PID.TID 0000.0001) usingSphericalPolarGrid = /* Spherical coordinates flag ( True/False ) */
(PID.TID 0000.0001)                   T
(PID.TID 0000.0001)     ;
(PID.TID 0000.0001) usingCurvilinearGrid = /* Curvilinear coordinates flag ( True/False ) */
(PID.TID 0000.0001)                   F
(PID.TID 0000.0001)     ;
(PID.TID 0000.0001) selectSigmaCoord = /* Hybrid-Sigma Vert. Coordinate option */
(PID.TID 0000.0001)                       0
(PID.TID 0000.0001)     ;
(PID.TID 0000.0001) Ro_SeaLevel = /* r(1) ( units of r ==  m ) */
(PID.TID 0000.0001)                 0.000000000000000E+00
(PID.TID 0000.0001)     ;
(PID.TID 0000.0001) rSigmaBnd = /* r/sigma transition ( units of r ==  m ) */
(PID.TID 0000.0001)                 1.234567000000000E+05
(PID.TID 0000.0001)     ;
(PID.TID 0000.0001) rkSign =   /* index orientation relative to vertical coordinate */
(PID.TID 0000.0001)                -1.000000000000000E+00
(PID.TID 0000.0001)     ;
(PID.TID 0000.0001) gravitySign = /* gravity orientation relative to vertical coordinate */
(PID.TID 0000.0001)                -1.000000000000000E+00
(PID.TID 0000.0001)     ;
(PID.TID 0000.0001) mass2rUnit = /* convert mass per unit area [kg/m2] to r-units [m] */
(PID.TID 0000.0001)                 1.000200040008002E-03
(PID.TID 0000.0001)     ;
(PID.TID 0000.0001) rUnit2mass = /* convert r-units [m] to mass per unit area [kg/m2] */
(PID.TID 0000.0001)                 9.998000000000000E+02
(PID.TID 0000.0001)     ;
(PID.TID 0000.0001) drC =   /* C spacing ( units of r ) */
(PID.TID 0000.0001)                 5.000000000000000E+00,      /* K =  1 */
(PID.TID 0000.0001)    13 @  1.000000000000000E+01,             /* K =  2: 14 */
(PID.TID 0000.0001)                 1.250000000000000E+01,      /* K = 15 */
(PID.TID 0000.0001)     4 @  1.500000000000000E+01,             /* K = 16: 19 */
(PID.TID 0000.0001)                 1.750000000000000E+01,      /* K = 20 */
(PID.TID 0000.0001)     3 @  2.000000000000000E+01,             /* K = 21: 23 */
(PID.TID 0000.0001)                 3.500000000000000E+01,      /* K = 24 */
(PID.TID 0000.0001)                 5.000000000000000E+01,      /* K = 25 */
(PID.TID 0000.0001)                 7.500000000000000E+01,      /* K = 26 */
(PID.TID 0000.0001)                 1.250000000000000E+02,      /* K = 27 */
(PID.TID 0000.0001)                 1.500000000000000E+02,      /* K = 28 */
(PID.TID 0000.0001)                 1.750000000000000E+02,      /* K = 29 */
(PID.TID 0000.0001)                 2.500000000000000E+02,      /* K = 30 */
(PID.TID 0000.0001)                 3.500000000000000E+02,      /* K = 31 */
(PID.TID 0000.0001)     2 @  4.000000000000000E+02,             /* K = 32: 33 */
(PID.TID 0000.0001)                 4.500000000000000E+02,      /* K = 34 */
(PID.TID 0000.0001)                 5.000000000000000E+02       /* K = 35 */
(PID.TID 0000.0001)     ;
(PID.TID 0000.0001) drF =   /* W spacing ( units of r ) */
(PID.TID 0000.0001)    14 @  1.000000000000000E+01,             /* K =  1: 14 */
(PID.TID 0000.0001)     5 @  1.500000000000000E+01,             /* K = 15: 19 */
(PID.TID 0000.0001)     4 @  2.000000000000000E+01,             /* K = 20: 23 */
(PID.TID 0000.0001)     2 @  5.000000000000000E+01,             /* K = 24: 25 */
(PID.TID 0000.0001)                 1.000000000000000E+02,      /* K = 26 */
(PID.TID 0000.0001)     2 @  1.500000000000000E+02,             /* K = 27: 28 */
(PID.TID 0000.0001)                 2.000000000000000E+02,      /* K = 29 */
(PID.TID 0000.0001)                 3.000000000000000E+02,      /* K = 30 */
(PID.TID 0000.0001)     3 @  4.000000000000000E+02,             /* K = 31: 33 */
(PID.TID 0000.0001)     2 @  5.000000000000000E+02              /* K = 34: 35 */
(PID.TID 0000.0001)     ;
(PID.TID 0000.0001) delX = /* U spacing ( m - cartesian, degrees - spherical ) */
(PID.TID 0000.0001)                 1.000000000000000E+00       /* I =  1 */
(PID.TID 0000.0001)     ;
(PID.TID 0000.0001) delY = /* V spacing ( m - cartesian, degrees - spherical ) */
(PID.TID 0000.0001)                 1.000000000000000E+00       /* J =  1 */
(PID.TID 0000.0001)     ;
(PID.TID 0000.0001) xgOrigin = /* X-axis origin of West  edge (cartesian: m, lat-lon: deg) */
(PID.TID 0000.0001)                 3.350000000000000E+02
(PID.TID 0000.0001)     ;
(PID.TID 0000.0001) ygOrigin = /* Y-axis origin of South edge (cartesian: m, lat-lon: deg) */
(PID.TID 0000.0001)                -1.800000000000000E+01
(PID.TID 0000.0001)     ;
(PID.TID 0000.0001) rSphere =  /* Radius ( ignored - cartesian, m - spherical ) */
(PID.TID 0000.0001)                 6.370000000000000E+06
(PID.TID 0000.0001)     ;
(PID.TID 0000.0001) deepAtmosphere = /* Deep/Shallow Atmosphere flag (True/False) */
(PID.TID 0000.0001)                   F
(PID.TID 0000.0001)     ;
(PID.TID 0000.0001) xC =  /* xC(:,1,:,1) : P-point X coord ( deg. or m if cartesian) */
(PID.TID 0000.0001)                 3.355000000000000E+02       /* I =  1 */
(PID.TID 0000.0001)     ;
(PID.TID 0000.0001) yC =  /* yC(1,:,1,:) : P-point Y coord ( deg. or m if cartesian) */
(PID.TID 0000.0001)                -1.750000000000000E+01       /* J =  1 */
(PID.TID 0000.0001)     ;
(PID.TID 0000.0001) rcoord = /* P-point R coordinate (  units of r ) */
(PID.TID 0000.0001)                -5.000000000000000E+00,      /* K =  1 */
(PID.TID 0000.0001)                -1.500000000000000E+01,      /* K =  2 */
(PID.TID 0000.0001)                -2.500000000000000E+01,      /* K =  3 */
(PID.TID 0000.0001)                -3.500000000000000E+01,      /* K =  4 */
(PID.TID 0000.0001)                -4.500000000000000E+01,      /* K =  5 */
(PID.TID 0000.0001)                -5.500000000000000E+01,      /* K =  6 */
(PID.TID 0000.0001)                -6.500000000000000E+01,      /* K =  7 */
(PID.TID 0000.0001)                -7.500000000000000E+01,      /* K =  8 */
(PID.TID 0000.0001)                -8.500000000000000E+01,      /* K =  9 */
(PID.TID 0000.0001)                -9.500000000000000E+01,      /* K = 10 */
(PID.TID 0000.0001)                -1.050000000000000E+02,      /* K = 11 */
(PID.TID 0000.0001)                -1.150000000000000E+02,      /* K = 12 */
(PID.TID 0000.0001)                -1.250000000000000E+02,      /* K = 13 */
(PID.TID 0000.0001)                -1.350000000000000E+02,      /* K = 14 */
(PID.TID 0000.0001)                -1.475000000000000E+02,      /* K = 15 */
(PID.TID 0000.0001)                -1.625000000000000E+02,      /* K = 16 */
(PID.TID 0000.0001)                -1.775000000000000E+02,      /* K = 17 */
(PID.TID 0000.0001)                -1.925000000000000E+02,      /* K = 18 */
(PID.TID 0000.0001)                -2.075000000000000E+02,      /* K = 19 */
(PID.TID 0000.0001)                -2.250000000000000E+02,      /* K = 20 */
(PID.TID 0000.0001)                -2.450000000000000E+02,      /* K = 21 */
(PID.TID 0000.0001)                -2.650000000000000E+02,      /* K = 22 */
(PID.TID 0000.0001)                -2.850000000000000E+02,      /* K = 23 */
(PID.TID 0000.0001)                -3.200000000000000E+02,      /* K = 24 */
(PID.TID 0000.0001)                -3.700000000000000E+02,      /* K = 25 */
(PID.TID 0000.0001)                -4.450000000000000E+02,      /* K = 26 */
(PID.TID 0000.0001)                -5.700000000000000E+02,      /* K = 27 */
(PID.TID 0000.0001)                -7.200000000000000E+02,      /* K = 28 */
(PID.TID 0000.0001)                -8.950000000000000E+02,      /* K = 29 */
(PID.TID 0000.0001)                -1.145000000000000E+03,      /* K = 30 */
(PID.TID 0000.0001)                -1.495000000000000E+03,      /* K = 31 */
(PID.TID 0000.0001)                -1.895000000000000E+03,      /* K = 32 */
(PID.TID 0000.0001)                -2.295000000000000E+03,      /* K = 33 */
(PID.TID 0000.0001)                -2.745000000000000E+03,      /* K = 34 */
(PID.TID 0000.0001)                -3.245000000000000E+03       /* K = 35 */
(PID.TID 0000.0001)     ;
(PID.TID 0000.0001) rF =   /* W-Interf. R coordinate (  units of r ) */
(PID.TID 0000.0001)                 0.000000000000000E+00,      /* K =  1 */
(PID.TID 0000.0001)                -1.000000000000000E+01,      /* K =  2 */
(PID.TID 0000.0001)                -2.000000000000000E+01,      /* K =  3 */
(PID.TID 0000.0001)                -3.000000000000000E+01,      /* K =  4 */
(PID.TID 0000.0001)                -4.000000000000000E+01,      /* K =  5 */
(PID.TID 0000.0001)                -5.000000000000000E+01,      /* K =  6 */
(PID.TID 0000.0001)                -6.000000000000000E+01,      /* K =  7 */
(PID.TID 0000.0001)                -7.000000000000000E+01,      /* K =  8 */
(PID.TID 0000.0001)                -8.000000000000000E+01,      /* K =  9 */
(PID.TID 0000.0001)                -9.000000000000000E+01,      /* K = 10 */
(PID.TID 0000.0001)                -1.000000000000000E+02,      /* K = 11 */
(PID.TID 0000.0001)                -1.100000000000000E+02,      /* K = 12 */
(PID.TID 0000.0001)                -1.200000000000000E+02,      /* K = 13 */
(PID.TID 0000.0001)                -1.300000000000000E+02,      /* K = 14 */
(PID.TID 0000.0001)                -1.400000000000000E+02,      /* K = 15 */
(PID.TID 0000.0001)                -1.550000000000000E+02,      /* K = 16 */
(PID.TID 0000.0001)                -1.700000000000000E+02,      /* K = 17 */
(PID.TID 0000.0001)                -1.850000000000000E+02,      /* K = 18 */
(PID.TID 0000.0001)                -2.000000000000000E+02,      /* K = 19 */
(PID.TID 0000.0001)                -2.150000000000000E+02,      /* K = 20 */
(PID.TID 0000.0001)                -2.350000000000000E+02,      /* K = 21 */
(PID.TID 0000.0001)                -2.550000000000000E+02,      /* K = 22 */
(PID.TID 0000.0001)                -2.750000000000000E+02,      /* K = 23 */
(PID.TID 0000.0001)                -2.950000000000000E+02,      /* K = 24 */
(PID.TID 0000.0001)                -3.450000000000000E+02,      /* K = 25 */
(PID.TID 0000.0001)                -3.950000000000000E+02,      /* K = 26 */
(PID.TID 0000.0001)                -4.950000000000000E+02,      /* K = 27 */
(PID.TID 0000.0001)                -6.450000000000000E+02,      /* K = 28 */
(PID.TID 0000.0001)                -7.950000000000000E+02,      /* K = 29 */
(PID.TID 0000.0001)                -9.950000000000000E+02,      /* K = 30 */
(PID.TID 0000.0001)                -1.295000000000000E+03,      /* K = 31 */
(PID.TID 0000.0001)                -1.695000000000000E+03,      /* K = 32 */
(PID.TID 0000.0001)                -2.095000000000000E+03,      /* K = 33 */
(PID.TID 0000.0001)                -2.495000000000000E+03,      /* K = 34 */
(PID.TID 0000.0001)                -2.995000000000000E+03,      /* K = 35 */
(PID.TID 0000.0001)                -3.495000000000000E+03       /* K = 36 */
(PID.TID 0000.0001)     ;
(PID.TID 0000.0001) deepFacC = /* deep-model grid factor @ cell-Center (-) */
(PID.TID 0000.0001)    35 @  1.000000000000000E+00              /* K =  1: 35 */
(PID.TID 0000.0001)     ;
(PID.TID 0000.0001) deepFacF = /* deep-model grid factor @ W-Interface (-) */
(PID.TID 0000.0001)    36 @  1.000000000000000E+00              /* K =  1: 36 */
(PID.TID 0000.0001)     ;
(PID.TID 0000.0001) rVel2wUnit = /* convert units: rVel -> wSpeed (=1 if z-coord)*/
(PID.TID 0000.0001)    36 @  1.000000000000000E+00              /* K =  1: 36 */
(PID.TID 0000.0001)     ;
(PID.TID 0000.0001) wUnit2rVel = /* convert units: wSpeed -> rVel (=1 if z-coord)*/
(PID.TID 0000.0001)    36 @  1.000000000000000E+00              /* K =  1: 36 */
(PID.TID 0000.0001)     ;
(PID.TID 0000.0001) dBdrRef = /* Vertical grad. of reference buoyancy [(m/s/r)^2] */
(PID.TID 0000.0001)                 0.000000000000000E+00,      /* K =  1 */
(PID.TID 0000.0001)                 1.232578190459821E-04,      /* K =  2 */
(PID.TID 0000.0001)                 3.063957957303617E-05,      /* K =  3 */
(PID.TID 0000.0001)                 1.521320422054373E-04,      /* K =  4 */
(PID.TID 0000.0001)                 3.021271930223580E-05,      /* K =  5 */
(PID.TID 0000.0001)                 1.499903428890670E-04,      /* K =  6 */
(PID.TID 0000.0001)                 1.186737265074332E-04,      /* K =  7 */
(PID.TID 0000.0001)                 1.466841384627423E-04,      /* K =  8 */
(PID.TID 0000.0001)                 8.712618931102987E-05,      /* K =  9 */
(PID.TID 0000.0001)                 1.151380441308261E-04,      /* K = 10 */
(PID.TID 0000.0001)                 5.712979717883684E-05,      /* K = 11 */
(PID.TID 0000.0001)                 8.515049872565506E-05,      /* K = 12 */
(PID.TID 0000.0001)                 8.448721842774896E-05,      /* K = 13 */
(PID.TID 0000.0001)                 1.116043428725511E-04,      /* K = 14 */
(PID.TID 0000.0001)                 1.102373809396796E-04,      /* K = 15 */
(PID.TID 0000.0001)                 1.798828639202717E-04,      /* K = 16 */
(PID.TID 0000.0001)                 1.918102676980872E-04,      /* K = 17 */
(PID.TID 0000.0001)                 1.853506120896664E-04,      /* K = 18 */
(PID.TID 0000.0001)                 1.787791674911888E-04,      /* K = 19 */
(PID.TID 0000.0001)                 9.455522998141848E-05,      /* K = 20 */
(PID.TID 0000.0001)                 1.259231836379978E-04,      /* K = 21 */
(PID.TID 0000.0001)                 9.923620256554768E-05,      /* K = 22 */
(PID.TID 0000.0001)                 8.531935398693722E-05,      /* K = 23 */
(PID.TID 0000.0001)                 4.137475825384700E-05,      /* K = 24 */
(PID.TID 0000.0001)                 5.930109718499171E-05,      /* K = 25 */
(PID.TID 0000.0001)                 3.689739454308316E-05,      /* K = 26 */
(PID.TID 0000.0001)                 3.215311288275425E-05,      /* K = 27 */
(PID.TID 0000.0001)                 2.340106578013931E-05,      /* K = 28 */
(PID.TID 0000.0001)                 8.957465806881803E-06,      /* K = 29 */
(PID.TID 0000.0001)                 2.029141226789735E-06,      /* K = 30 */
(PID.TID 0000.0001)                 0.000000000000000E+00,      /* K = 31 */
(PID.TID 0000.0001)                 1.052869956707729E-06,      /* K = 32 */
(PID.TID 0000.0001)                 1.465965950004292E-06,      /* K = 33 */
(PID.TID 0000.0001)                 6.817081889333135E-07,      /* K = 34 */
(PID.TID 0000.0001)                 6.544800624285541E-07       /* K = 35 */
(PID.TID 0000.0001)     ;
(PID.TID 0000.0001) rotateGrid = /* use rotated grid ( True/False ) */
(PID.TID 0000.0001)                   F
(PID.TID 0000.0001)     ;
(PID.TID 0000.0001) phiEuler = /* Euler angle, rotation about original z-coordinate [rad] */
(PID.TID 0000.0001)                 0.000000000000000E+00
(PID.TID 0000.0001)     ;
(PID.TID 0000.0001) thetaEuler = /* Euler angle, rotation about new x-coordinate [rad] */
(PID.TID 0000.0001)                 0.000000000000000E+00
(PID.TID 0000.0001)     ;
(PID.TID 0000.0001) psiEuler = /* Euler angle, rotation about new z-coordinate [rad] */
(PID.TID 0000.0001)                 0.000000000000000E+00
(PID.TID 0000.0001)     ;
(PID.TID 0000.0001) dxF =  /* dxF(:,1,:,1) ( units: m ) */
(PID.TID 0000.0001)                 1.060318408771987E+05       /* I =  1 */
(PID.TID 0000.0001)     ;
(PID.TID 0000.0001) dxF =  /* dxF(1,:,1,:) ( units: m ) */
(PID.TID 0000.0001)                 1.060318408771987E+05       /* J =  1 */
(PID.TID 0000.0001)     ;
(PID.TID 0000.0001) dyF =  /* dyF(:,1,:,1) ( units: m ) */
(PID.TID 0000.0001)                 1.111774733520388E+05       /* I =  1 */
(PID.TID 0000.0001)     ;
(PID.TID 0000.0001) dyF =  /* dyF(1,:,1,:) ( units: m ) */
(PID.TID 0000.0001)                 1.111774733520388E+05       /* J =  1 */
(PID.TID 0000.0001)     ;
(PID.TID 0000.0001) dxG =  /* dxG(:,1,:,1) ( units: m ) */
(PID.TID 0000.0001)                 1.057360604966873E+05       /* I =  1 */
(PID.TID 0000.0001)     ;
(PID.TID 0000.0001) dxG =  /* dxG(1,:,1,:) ( units: m ) */
(PID.TID 0000.0001)                 1.057360604966873E+05       /* J =  1 */
(PID.TID 0000.0001)     ;
(PID.TID 0000.0001) dyG =  /* dyG(:,1,:,1) ( units: m ) */
(PID.TID 0000.0001)                 1.111774733520388E+05       /* I =  1 */
(PID.TID 0000.0001)     ;
(PID.TID 0000.0001) dyG =  /* dyG(1,:,1,:) ( units: m ) */
(PID.TID 0000.0001)                 1.111774733520388E+05       /* J =  1 */
(PID.TID 0000.0001)     ;
(PID.TID 0000.0001) dxC =  /* dxC(:,1,:,1) ( units: m ) */
(PID.TID 0000.0001)                 1.060318408771987E+05       /* I =  1 */
(PID.TID 0000.0001)     ;
(PID.TID 0000.0001) dxC =  /* dxC(1,:,1,:) ( units: m ) */
(PID.TID 0000.0001)                 1.060318408771987E+05       /* J =  1 */
(PID.TID 0000.0001)     ;
(PID.TID 0000.0001) dyC =  /* dyC(:,1,:,1) ( units: m ) */
(PID.TID 0000.0001)                 1.111774733520388E+05       /* I =  1 */
(PID.TID 0000.0001)     ;
(PID.TID 0000.0001) dyC =  /* dyC(1,:,1,:) ( units: m ) */
(PID.TID 0000.0001)                 1.111774733520388E+05       /* J =  1 */
(PID.TID 0000.0001)     ;
(PID.TID 0000.0001) dxV =  /* dxV(:,1,:,1) ( units: m ) */
(PID.TID 0000.0001)                 1.057360604966873E+05       /* I =  1 */
(PID.TID 0000.0001)     ;
(PID.TID 0000.0001) dxV =  /* dxV(1,:,1,:) ( units: m ) */
(PID.TID 0000.0001)                 1.057360604966873E+05       /* J =  1 */
(PID.TID 0000.0001)     ;
(PID.TID 0000.0001) dyU =  /* dyU(:,1,:,1) ( units: m ) */
(PID.TID 0000.0001)                 1.111774733520388E+05       /* I =  1 */
(PID.TID 0000.0001)     ;
(PID.TID 0000.0001) dyU =  /* dyU(1,:,1,:) ( units: m ) */
(PID.TID 0000.0001)                 1.111774733520388E+05       /* J =  1 */
(PID.TID 0000.0001)     ;
(PID.TID 0000.0001) rA  =  /* rA (:,1,:,1) ( units: m^2 ) */
(PID.TID 0000.0001)                 1.178820254176956E+10       /* I =  1 */
(PID.TID 0000.0001)     ;
(PID.TID 0000.0001) rA  =  /* rA (1,:,1,:) ( units: m^2 ) */
(PID.TID 0000.0001)                 1.178820254176956E+10       /* J =  1 */
(PID.TID 0000.0001)     ;
(PID.TID 0000.0001) rAw =  /* rAw(:,1,:,1) ( units: m^2 ) */
(PID.TID 0000.0001)                 1.178820254176956E+10       /* I =  1 */
(PID.TID 0000.0001)     ;
(PID.TID 0000.0001) rAw =  /* rAw(1,:,1,:) ( units: m^2 ) */
(PID.TID 0000.0001)                 1.178820254176956E+10       /* J =  1 */
(PID.TID 0000.0001)     ;
(PID.TID 0000.0001) rAs =  /* rAs(:,1,:,1) ( units: m^2 ) */
(PID.TID 0000.0001)                 1.175531884377377E+10       /* I =  1 */
(PID.TID 0000.0001)     ;
(PID.TID 0000.0001) rAs =  /* rAs(1,:,1,:) ( units: m^2 ) */
(PID.TID 0000.0001)                 1.175531884377377E+10       /* J =  1 */
(PID.TID 0000.0001)     ;
(PID.TID 0000.0001) globalArea = /* Integrated horizontal Area (m^2) */
(PID.TID 0000.0001)                 1.178820254176956E+10
(PID.TID 0000.0001)     ;
(PID.TID 0000.0001) // =======================================================
(PID.TID 0000.0001) // End of Model config. summary
(PID.TID 0000.0001) // =======================================================
(PID.TID 0000.0001) 
(PID.TID 0000.0001) == Packages configuration : Check & print summary ==
(PID.TID 0000.0001) 
(PID.TID 0000.0001) PTRACERS_CHECK: #define ALLOW_PTRACERS
(PID.TID 0000.0001) PTRACERS_CHECK: updated GAD_OlMinSize=  2  0  1
(PID.TID 0000.0001) // ===================================
(PID.TID 0000.0001) // PTRACERS parameters
(PID.TID 0000.0001) // ===================================
(PID.TID 0000.0001) PTRACERS_numInUse = /* number of tracers */
(PID.TID 0000.0001)                      98
(PID.TID 0000.0001)     ;
(PID.TID 0000.0001) PTRACERS_Iter0 = /* timestep number when tracers are initialized */
(PID.TID 0000.0001)                       0
(PID.TID 0000.0001)     ;
(PID.TID 0000.0001) PTRACERS_startAllTrc =/* all tracers start @ startTime */
(PID.TID 0000.0001)                   T
(PID.TID 0000.0001)     ;
(PID.TID 0000.0001) PTRACERS_addSrelax2EmP =/* add Salt relaxation to EmP */
(PID.TID 0000.0001)                   F
(PID.TID 0000.0001)     ;
(PID.TID 0000.0001) PTRACERS_dTLev =   /* Ptracer timestep ( s ) */
(PID.TID 0000.0001)    35 @  3.600000000000000E+03              /* K =  1: 35 */
(PID.TID 0000.0001)     ;
(PID.TID 0000.0001) PTRACERS_dumpFreq = /* Frequency^-1 for snapshot output (s) */
(PID.TID 0000.0001)                 3.600000000000000E+03
(PID.TID 0000.0001)     ;
(PID.TID 0000.0001) PTRACERS_taveFreq = /* Frequency^-1 for time-Aver. output (s) */
(PID.TID 0000.0001)                 2.592000000000000E+06
(PID.TID 0000.0001)     ;
(PID.TID 0000.0001) PTRACERS_useRecords = /* all tracers in 1 file */
(PID.TID 0000.0001)                   F
(PID.TID 0000.0001)     ;
(PID.TID 0000.0001) PTRACERS_timeave_mnc = /* use MNC for Tave output */
(PID.TID 0000.0001)                   T
(PID.TID 0000.0001)     ;
(PID.TID 0000.0001) PTRACERS_snapshot_mnc = /* use MNC for snapshot output */
(PID.TID 0000.0001)                   T
(PID.TID 0000.0001)     ;
(PID.TID 0000.0001) PTRACERS_pickup_write_mnc = /* use MNC for writing pickups */
(PID.TID 0000.0001)                   F
(PID.TID 0000.0001)     ;
(PID.TID 0000.0001) PTRACERS_pickup_read_mnc = /* use MNC for reading pickups */
(PID.TID 0000.0001)                   F
(PID.TID 0000.0001)     ;
(PID.TID 0000.0001)  -----------------------------------
(PID.TID 0000.0001)  tracer number :    1
(PID.TID 0000.0001) PTRACERS_names = /* Tracer short name */
(PID.TID 0000.0001)               'DIC'
(PID.TID 0000.0001)     ;
(PID.TID 0000.0001) PTRACERS_long_names = /* Tracer long name */
(PID.TID 0000.0001)               ''
(PID.TID 0000.0001)     ;
(PID.TID 0000.0001) PTRACERS_ioLabel = /* tracer IO Label */
(PID.TID 0000.0001)               '01'
(PID.TID 0000.0001)     ;
(PID.TID 0000.0001) PTRACERS_advScheme = /* Advection Scheme */
(PID.TID 0000.0001)                      33
(PID.TID 0000.0001)     ;
(PID.TID 0000.0001) PTRACERS_SOM_Advection = /* tracer uses SOM advection scheme */
(PID.TID 0000.0001)                   F
(PID.TID 0000.0001)     ;
(PID.TID 0000.0001) PTRACERS_ImplVertAdv = /* implicit vert. advection flag */
(PID.TID 0000.0001)                   F
(PID.TID 0000.0001)     ;
(PID.TID 0000.0001) PTRACERS_diffKh = /* Laplacian Diffusivity */
(PID.TID 0000.0001)                 0.000000000000000E+00
(PID.TID 0000.0001)     ;
(PID.TID 0000.0001) PTRACERS_diffK4 = /* Biharmonic Diffusivity */
(PID.TID 0000.0001)                 0.000000000000000E+00
(PID.TID 0000.0001)     ;
(PID.TID 0000.0001) PTRACERS_diffKrNr = /* Vertical Diffusivity */
(PID.TID 0000.0001)    35 @  1.000000000000000E-05              /* K =  1: 35 */
(PID.TID 0000.0001)     ;
(PID.TID 0000.0001) PTRACERS_useGMRedi = /* apply GM-Redi */
(PID.TID 0000.0001)                   F
(PID.TID 0000.0001)     ;
(PID.TID 0000.0001) PTRACERS_useDWNSLP = /* apply DOWN-SLOPE Flow */
(PID.TID 0000.0001)                   F
(PID.TID 0000.0001)     ;
(PID.TID 0000.0001) PTRACERS_useKPP = /* apply KPP scheme */
(PID.TID 0000.0001)                   F
(PID.TID 0000.0001)     ;
(PID.TID 0000.0001) PTRACERS_ref = /* Reference vertical profile */
(PID.TID 0000.0001)    35 @  2.000000000000000E+03              /* K =  1: 35 */
(PID.TID 0000.0001)     ;
(PID.TID 0000.0001) PTRACERS_EvPrRn =/* tracer conc. in Evap. & Rain */
(PID.TID 0000.0001)                 1.234567000000000E+05
(PID.TID 0000.0001)     ;
(PID.TID 0000.0001)  -----------------------------------
(PID.TID 0000.0001)  tracer number :    2
(PID.TID 0000.0001) PTRACERS_names = /* Tracer short name */
(PID.TID 0000.0001)               'NH4'
(PID.TID 0000.0001)     ;
(PID.TID 0000.0001) PTRACERS_long_names = /* Tracer long name */
(PID.TID 0000.0001)               ''
(PID.TID 0000.0001)     ;
(PID.TID 0000.0001) PTRACERS_ioLabel = /* tracer IO Label */
(PID.TID 0000.0001)               '02'
(PID.TID 0000.0001)     ;
(PID.TID 0000.0001) PTRACERS_advScheme = /* Advection Scheme */
(PID.TID 0000.0001)                      33
(PID.TID 0000.0001)     ;
(PID.TID 0000.0001) PTRACERS_SOM_Advection = /* tracer uses SOM advection scheme */
(PID.TID 0000.0001)                   F
(PID.TID 0000.0001)     ;
(PID.TID 0000.0001) PTRACERS_ImplVertAdv = /* implicit vert. advection flag */
(PID.TID 0000.0001)                   F
(PID.TID 0000.0001)     ;
(PID.TID 0000.0001) PTRACERS_diffKh = /* Laplacian Diffusivity */
(PID.TID 0000.0001)                 0.000000000000000E+00
(PID.TID 0000.0001)     ;
(PID.TID 0000.0001) PTRACERS_diffK4 = /* Biharmonic Diffusivity */
(PID.TID 0000.0001)                 0.000000000000000E+00
(PID.TID 0000.0001)     ;
(PID.TID 0000.0001) PTRACERS_diffKrNr = /* Vertical Diffusivity */
(PID.TID 0000.0001)    35 @  1.000000000000000E-05              /* K =  1: 35 */
(PID.TID 0000.0001)     ;
(PID.TID 0000.0001) PTRACERS_useGMRedi = /* apply GM-Redi */
(PID.TID 0000.0001)                   F
(PID.TID 0000.0001)     ;
(PID.TID 0000.0001) PTRACERS_useDWNSLP = /* apply DOWN-SLOPE Flow */
(PID.TID 0000.0001)                   F
(PID.TID 0000.0001)     ;
(PID.TID 0000.0001) PTRACERS_useKPP = /* apply KPP scheme */
(PID.TID 0000.0001)                   F
(PID.TID 0000.0001)     ;
(PID.TID 0000.0001) PTRACERS_ref = /* Reference vertical profile */
(PID.TID 0000.0001)    35 @  0.000000000000000E+00              /* K =  1: 35 */
(PID.TID 0000.0001)     ;
(PID.TID 0000.0001) PTRACERS_EvPrRn =/* tracer conc. in Evap. & Rain */
(PID.TID 0000.0001)                 1.234567000000000E+05
(PID.TID 0000.0001)     ;
(PID.TID 0000.0001)  -----------------------------------
(PID.TID 0000.0001)  tracer number :    3
(PID.TID 0000.0001) PTRACERS_names = /* Tracer short name */
(PID.TID 0000.0001)               'NO2'
(PID.TID 0000.0001)     ;
(PID.TID 0000.0001) PTRACERS_long_names = /* Tracer long name */
(PID.TID 0000.0001)               ''
(PID.TID 0000.0001)     ;
(PID.TID 0000.0001) PTRACERS_ioLabel = /* tracer IO Label */
(PID.TID 0000.0001)               '03'
(PID.TID 0000.0001)     ;
(PID.TID 0000.0001) PTRACERS_advScheme = /* Advection Scheme */
(PID.TID 0000.0001)                      33
(PID.TID 0000.0001)     ;
(PID.TID 0000.0001) PTRACERS_SOM_Advection = /* tracer uses SOM advection scheme */
(PID.TID 0000.0001)                   F
(PID.TID 0000.0001)     ;
(PID.TID 0000.0001) PTRACERS_ImplVertAdv = /* implicit vert. advection flag */
(PID.TID 0000.0001)                   F
(PID.TID 0000.0001)     ;
(PID.TID 0000.0001) PTRACERS_diffKh = /* Laplacian Diffusivity */
(PID.TID 0000.0001)                 0.000000000000000E+00
(PID.TID 0000.0001)     ;
(PID.TID 0000.0001) PTRACERS_diffK4 = /* Biharmonic Diffusivity */
(PID.TID 0000.0001)                 0.000000000000000E+00
(PID.TID 0000.0001)     ;
(PID.TID 0000.0001) PTRACERS_diffKrNr = /* Vertical Diffusivity */
(PID.TID 0000.0001)    35 @  1.000000000000000E-05              /* K =  1: 35 */
(PID.TID 0000.0001)     ;
(PID.TID 0000.0001) PTRACERS_useGMRedi = /* apply GM-Redi */
(PID.TID 0000.0001)                   F
(PID.TID 0000.0001)     ;
(PID.TID 0000.0001) PTRACERS_useDWNSLP = /* apply DOWN-SLOPE Flow */
(PID.TID 0000.0001)                   F
(PID.TID 0000.0001)     ;
(PID.TID 0000.0001) PTRACERS_useKPP = /* apply KPP scheme */
(PID.TID 0000.0001)                   F
(PID.TID 0000.0001)     ;
(PID.TID 0000.0001) PTRACERS_ref = /* Reference vertical profile */
(PID.TID 0000.0001)    35 @  0.000000000000000E+00              /* K =  1: 35 */
(PID.TID 0000.0001)     ;
(PID.TID 0000.0001) PTRACERS_EvPrRn =/* tracer conc. in Evap. & Rain */
(PID.TID 0000.0001)                 1.234567000000000E+05
(PID.TID 0000.0001)     ;
(PID.TID 0000.0001)  -----------------------------------
(PID.TID 0000.0001)  tracer number :    4
(PID.TID 0000.0001) PTRACERS_names = /* Tracer short name */
(PID.TID 0000.0001)               'NO3'
(PID.TID 0000.0001)     ;
(PID.TID 0000.0001) PTRACERS_long_names = /* Tracer long name */
(PID.TID 0000.0001)               ''
(PID.TID 0000.0001)     ;
(PID.TID 0000.0001) PTRACERS_ioLabel = /* tracer IO Label */
(PID.TID 0000.0001)               '04'
(PID.TID 0000.0001)     ;
(PID.TID 0000.0001) PTRACERS_advScheme = /* Advection Scheme */
(PID.TID 0000.0001)                      33
(PID.TID 0000.0001)     ;
(PID.TID 0000.0001) PTRACERS_SOM_Advection = /* tracer uses SOM advection scheme */
(PID.TID 0000.0001)                   F
(PID.TID 0000.0001)     ;
(PID.TID 0000.0001) PTRACERS_ImplVertAdv = /* implicit vert. advection flag */
(PID.TID 0000.0001)                   F
(PID.TID 0000.0001)     ;
(PID.TID 0000.0001) PTRACERS_diffKh = /* Laplacian Diffusivity */
(PID.TID 0000.0001)                 0.000000000000000E+00
(PID.TID 0000.0001)     ;
(PID.TID 0000.0001) PTRACERS_diffK4 = /* Biharmonic Diffusivity */
(PID.TID 0000.0001)                 0.000000000000000E+00
(PID.TID 0000.0001)     ;
(PID.TID 0000.0001) PTRACERS_diffKrNr = /* Vertical Diffusivity */
(PID.TID 0000.0001)    35 @  1.000000000000000E-05              /* K =  1: 35 */
(PID.TID 0000.0001)     ;
(PID.TID 0000.0001) PTRACERS_useGMRedi = /* apply GM-Redi */
(PID.TID 0000.0001)                   F
(PID.TID 0000.0001)     ;
(PID.TID 0000.0001) PTRACERS_useDWNSLP = /* apply DOWN-SLOPE Flow */
(PID.TID 0000.0001)                   F
(PID.TID 0000.0001)     ;
(PID.TID 0000.0001) PTRACERS_useKPP = /* apply KPP scheme */
(PID.TID 0000.0001)                   F
(PID.TID 0000.0001)     ;
(PID.TID 0000.0001) PTRACERS_ref = /* Reference vertical profile */
(PID.TID 0000.0001)    35 @  0.000000000000000E+00              /* K =  1: 35 */
(PID.TID 0000.0001)     ;
(PID.TID 0000.0001) PTRACERS_EvPrRn =/* tracer conc. in Evap. & Rain */
(PID.TID 0000.0001)                 1.234567000000000E+05
(PID.TID 0000.0001)     ;
(PID.TID 0000.0001)  -----------------------------------
(PID.TID 0000.0001)  tracer number :    5
(PID.TID 0000.0001) PTRACERS_names = /* Tracer short name */
(PID.TID 0000.0001)               'PO4'
(PID.TID 0000.0001)     ;
(PID.TID 0000.0001) PTRACERS_long_names = /* Tracer long name */
(PID.TID 0000.0001)               ''
(PID.TID 0000.0001)     ;
(PID.TID 0000.0001) PTRACERS_ioLabel = /* tracer IO Label */
(PID.TID 0000.0001)               '05'
(PID.TID 0000.0001)     ;
(PID.TID 0000.0001) PTRACERS_advScheme = /* Advection Scheme */
(PID.TID 0000.0001)                      33
(PID.TID 0000.0001)     ;
(PID.TID 0000.0001) PTRACERS_SOM_Advection = /* tracer uses SOM advection scheme */
(PID.TID 0000.0001)                   F
(PID.TID 0000.0001)     ;
(PID.TID 0000.0001) PTRACERS_ImplVertAdv = /* implicit vert. advection flag */
(PID.TID 0000.0001)                   F
(PID.TID 0000.0001)     ;
(PID.TID 0000.0001) PTRACERS_diffKh = /* Laplacian Diffusivity */
(PID.TID 0000.0001)                 0.000000000000000E+00
(PID.TID 0000.0001)     ;
(PID.TID 0000.0001) PTRACERS_diffK4 = /* Biharmonic Diffusivity */
(PID.TID 0000.0001)                 0.000000000000000E+00
(PID.TID 0000.0001)     ;
(PID.TID 0000.0001) PTRACERS_diffKrNr = /* Vertical Diffusivity */
(PID.TID 0000.0001)    35 @  1.000000000000000E-05              /* K =  1: 35 */
(PID.TID 0000.0001)     ;
(PID.TID 0000.0001) PTRACERS_useGMRedi = /* apply GM-Redi */
(PID.TID 0000.0001)                   F
(PID.TID 0000.0001)     ;
(PID.TID 0000.0001) PTRACERS_useDWNSLP = /* apply DOWN-SLOPE Flow */
(PID.TID 0000.0001)                   F
(PID.TID 0000.0001)     ;
(PID.TID 0000.0001) PTRACERS_useKPP = /* apply KPP scheme */
(PID.TID 0000.0001)                   F
(PID.TID 0000.0001)     ;
(PID.TID 0000.0001) PTRACERS_ref = /* Reference vertical profile */
(PID.TID 0000.0001)    35 @  0.000000000000000E+00              /* K =  1: 35 */
(PID.TID 0000.0001)     ;
(PID.TID 0000.0001) PTRACERS_EvPrRn =/* tracer conc. in Evap. & Rain */
(PID.TID 0000.0001)                 1.234567000000000E+05
(PID.TID 0000.0001)     ;
(PID.TID 0000.0001)  -----------------------------------
(PID.TID 0000.0001)  tracer number :    6
(PID.TID 0000.0001) PTRACERS_names = /* Tracer short name */
(PID.TID 0000.0001)               'SiO2'
(PID.TID 0000.0001)     ;
(PID.TID 0000.0001) PTRACERS_long_names = /* Tracer long name */
(PID.TID 0000.0001)               ''
(PID.TID 0000.0001)     ;
(PID.TID 0000.0001) PTRACERS_ioLabel = /* tracer IO Label */
(PID.TID 0000.0001)               '06'
(PID.TID 0000.0001)     ;
(PID.TID 0000.0001) PTRACERS_advScheme = /* Advection Scheme */
(PID.TID 0000.0001)                      33
(PID.TID 0000.0001)     ;
(PID.TID 0000.0001) PTRACERS_SOM_Advection = /* tracer uses SOM advection scheme */
(PID.TID 0000.0001)                   F
(PID.TID 0000.0001)     ;
(PID.TID 0000.0001) PTRACERS_ImplVertAdv = /* implicit vert. advection flag */
(PID.TID 0000.0001)                   F
(PID.TID 0000.0001)     ;
(PID.TID 0000.0001) PTRACERS_diffKh = /* Laplacian Diffusivity */
(PID.TID 0000.0001)                 0.000000000000000E+00
(PID.TID 0000.0001)     ;
(PID.TID 0000.0001) PTRACERS_diffK4 = /* Biharmonic Diffusivity */
(PID.TID 0000.0001)                 0.000000000000000E+00
(PID.TID 0000.0001)     ;
(PID.TID 0000.0001) PTRACERS_diffKrNr = /* Vertical Diffusivity */
(PID.TID 0000.0001)    35 @  1.000000000000000E-05              /* K =  1: 35 */
(PID.TID 0000.0001)     ;
(PID.TID 0000.0001) PTRACERS_useGMRedi = /* apply GM-Redi */
(PID.TID 0000.0001)                   F
(PID.TID 0000.0001)     ;
(PID.TID 0000.0001) PTRACERS_useDWNSLP = /* apply DOWN-SLOPE Flow */
(PID.TID 0000.0001)                   F
(PID.TID 0000.0001)     ;
(PID.TID 0000.0001) PTRACERS_useKPP = /* apply KPP scheme */
(PID.TID 0000.0001)                   F
(PID.TID 0000.0001)     ;
(PID.TID 0000.0001) PTRACERS_ref = /* Reference vertical profile */
(PID.TID 0000.0001)    35 @  0.000000000000000E+00              /* K =  1: 35 */
(PID.TID 0000.0001)     ;
(PID.TID 0000.0001) PTRACERS_EvPrRn =/* tracer conc. in Evap. & Rain */
(PID.TID 0000.0001)                 1.234567000000000E+05
(PID.TID 0000.0001)     ;
(PID.TID 0000.0001)  -----------------------------------
(PID.TID 0000.0001)  tracer number :    7
(PID.TID 0000.0001) PTRACERS_names = /* Tracer short name */
(PID.TID 0000.0001)               'FeT'
(PID.TID 0000.0001)     ;
(PID.TID 0000.0001) PTRACERS_long_names = /* Tracer long name */
(PID.TID 0000.0001)               ''
(PID.TID 0000.0001)     ;
(PID.TID 0000.0001) PTRACERS_ioLabel = /* tracer IO Label */
(PID.TID 0000.0001)               '07'
(PID.TID 0000.0001)     ;
(PID.TID 0000.0001) PTRACERS_advScheme = /* Advection Scheme */
(PID.TID 0000.0001)                      33
(PID.TID 0000.0001)     ;
(PID.TID 0000.0001) PTRACERS_SOM_Advection = /* tracer uses SOM advection scheme */
(PID.TID 0000.0001)                   F
(PID.TID 0000.0001)     ;
(PID.TID 0000.0001) PTRACERS_ImplVertAdv = /* implicit vert. advection flag */
(PID.TID 0000.0001)                   F
(PID.TID 0000.0001)     ;
(PID.TID 0000.0001) PTRACERS_diffKh = /* Laplacian Diffusivity */
(PID.TID 0000.0001)                 0.000000000000000E+00
(PID.TID 0000.0001)     ;
(PID.TID 0000.0001) PTRACERS_diffK4 = /* Biharmonic Diffusivity */
(PID.TID 0000.0001)                 0.000000000000000E+00
(PID.TID 0000.0001)     ;
(PID.TID 0000.0001) PTRACERS_diffKrNr = /* Vertical Diffusivity */
(PID.TID 0000.0001)    35 @  1.000000000000000E-05              /* K =  1: 35 */
(PID.TID 0000.0001)     ;
(PID.TID 0000.0001) PTRACERS_useGMRedi = /* apply GM-Redi */
(PID.TID 0000.0001)                   F
(PID.TID 0000.0001)     ;
(PID.TID 0000.0001) PTRACERS_useDWNSLP = /* apply DOWN-SLOPE Flow */
(PID.TID 0000.0001)                   F
(PID.TID 0000.0001)     ;
(PID.TID 0000.0001) PTRACERS_useKPP = /* apply KPP scheme */
(PID.TID 0000.0001)                   F
(PID.TID 0000.0001)     ;
(PID.TID 0000.0001) PTRACERS_ref = /* Reference vertical profile */
(PID.TID 0000.0001)    35 @  0.000000000000000E+00              /* K =  1: 35 */
(PID.TID 0000.0001)     ;
(PID.TID 0000.0001) PTRACERS_EvPrRn =/* tracer conc. in Evap. & Rain */
(PID.TID 0000.0001)                 1.234567000000000E+05
(PID.TID 0000.0001)     ;
(PID.TID 0000.0001)  -----------------------------------
(PID.TID 0000.0001)  tracer number :    8
(PID.TID 0000.0001) PTRACERS_names = /* Tracer short name */
(PID.TID 0000.0001)               'DOC'
(PID.TID 0000.0001)     ;
(PID.TID 0000.0001) PTRACERS_long_names = /* Tracer long name */
(PID.TID 0000.0001)               ''
(PID.TID 0000.0001)     ;
(PID.TID 0000.0001) PTRACERS_ioLabel = /* tracer IO Label */
(PID.TID 0000.0001)               '08'
(PID.TID 0000.0001)     ;
(PID.TID 0000.0001) PTRACERS_advScheme = /* Advection Scheme */
(PID.TID 0000.0001)                      33
(PID.TID 0000.0001)     ;
(PID.TID 0000.0001) PTRACERS_SOM_Advection = /* tracer uses SOM advection scheme */
(PID.TID 0000.0001)                   F
(PID.TID 0000.0001)     ;
(PID.TID 0000.0001) PTRACERS_ImplVertAdv = /* implicit vert. advection flag */
(PID.TID 0000.0001)                   F
(PID.TID 0000.0001)     ;
(PID.TID 0000.0001) PTRACERS_diffKh = /* Laplacian Diffusivity */
(PID.TID 0000.0001)                 0.000000000000000E+00
(PID.TID 0000.0001)     ;
(PID.TID 0000.0001) PTRACERS_diffK4 = /* Biharmonic Diffusivity */
(PID.TID 0000.0001)                 0.000000000000000E+00
(PID.TID 0000.0001)     ;
(PID.TID 0000.0001) PTRACERS_diffKrNr = /* Vertical Diffusivity */
(PID.TID 0000.0001)    35 @  1.000000000000000E-05              /* K =  1: 35 */
(PID.TID 0000.0001)     ;
(PID.TID 0000.0001) PTRACERS_useGMRedi = /* apply GM-Redi */
(PID.TID 0000.0001)                   F
(PID.TID 0000.0001)     ;
(PID.TID 0000.0001) PTRACERS_useDWNSLP = /* apply DOWN-SLOPE Flow */
(PID.TID 0000.0001)                   F
(PID.TID 0000.0001)     ;
(PID.TID 0000.0001) PTRACERS_useKPP = /* apply KPP scheme */
(PID.TID 0000.0001)                   F
(PID.TID 0000.0001)     ;
(PID.TID 0000.0001) PTRACERS_ref = /* Reference vertical profile */
(PID.TID 0000.0001)    35 @  0.000000000000000E+00              /* K =  1: 35 */
(PID.TID 0000.0001)     ;
(PID.TID 0000.0001) PTRACERS_EvPrRn =/* tracer conc. in Evap. & Rain */
(PID.TID 0000.0001)                 1.234567000000000E+05
(PID.TID 0000.0001)     ;
(PID.TID 0000.0001)  -----------------------------------
(PID.TID 0000.0001)  tracer number :    9
(PID.TID 0000.0001) PTRACERS_names = /* Tracer short name */
(PID.TID 0000.0001)               'DON'
(PID.TID 0000.0001)     ;
(PID.TID 0000.0001) PTRACERS_long_names = /* Tracer long name */
(PID.TID 0000.0001)               ''
(PID.TID 0000.0001)     ;
(PID.TID 0000.0001) PTRACERS_ioLabel = /* tracer IO Label */
(PID.TID 0000.0001)               '09'
(PID.TID 0000.0001)     ;
(PID.TID 0000.0001) PTRACERS_advScheme = /* Advection Scheme */
(PID.TID 0000.0001)                      33
(PID.TID 0000.0001)     ;
(PID.TID 0000.0001) PTRACERS_SOM_Advection = /* tracer uses SOM advection scheme */
(PID.TID 0000.0001)                   F
(PID.TID 0000.0001)     ;
(PID.TID 0000.0001) PTRACERS_ImplVertAdv = /* implicit vert. advection flag */
(PID.TID 0000.0001)                   F
(PID.TID 0000.0001)     ;
(PID.TID 0000.0001) PTRACERS_diffKh = /* Laplacian Diffusivity */
(PID.TID 0000.0001)                 0.000000000000000E+00
(PID.TID 0000.0001)     ;
(PID.TID 0000.0001) PTRACERS_diffK4 = /* Biharmonic Diffusivity */
(PID.TID 0000.0001)                 0.000000000000000E+00
(PID.TID 0000.0001)     ;
(PID.TID 0000.0001) PTRACERS_diffKrNr = /* Vertical Diffusivity */
(PID.TID 0000.0001)    35 @  1.000000000000000E-05              /* K =  1: 35 */
(PID.TID 0000.0001)     ;
(PID.TID 0000.0001) PTRACERS_useGMRedi = /* apply GM-Redi */
(PID.TID 0000.0001)                   F
(PID.TID 0000.0001)     ;
(PID.TID 0000.0001) PTRACERS_useDWNSLP = /* apply DOWN-SLOPE Flow */
(PID.TID 0000.0001)                   F
(PID.TID 0000.0001)     ;
(PID.TID 0000.0001) PTRACERS_useKPP = /* apply KPP scheme */
(PID.TID 0000.0001)                   F
(PID.TID 0000.0001)     ;
(PID.TID 0000.0001) PTRACERS_ref = /* Reference vertical profile */
(PID.TID 0000.0001)    35 @  0.000000000000000E+00              /* K =  1: 35 */
(PID.TID 0000.0001)     ;
(PID.TID 0000.0001) PTRACERS_EvPrRn =/* tracer conc. in Evap. & Rain */
(PID.TID 0000.0001)                 1.234567000000000E+05
(PID.TID 0000.0001)     ;
(PID.TID 0000.0001)  -----------------------------------
(PID.TID 0000.0001)  tracer number :   10
(PID.TID 0000.0001) PTRACERS_names = /* Tracer short name */
(PID.TID 0000.0001)               'DOP'
(PID.TID 0000.0001)     ;
(PID.TID 0000.0001) PTRACERS_long_names = /* Tracer long name */
(PID.TID 0000.0001)               ''
(PID.TID 0000.0001)     ;
(PID.TID 0000.0001) PTRACERS_ioLabel = /* tracer IO Label */
(PID.TID 0000.0001)               '10'
(PID.TID 0000.0001)     ;
(PID.TID 0000.0001) PTRACERS_advScheme = /* Advection Scheme */
(PID.TID 0000.0001)                      33
(PID.TID 0000.0001)     ;
(PID.TID 0000.0001) PTRACERS_SOM_Advection = /* tracer uses SOM advection scheme */
(PID.TID 0000.0001)                   F
(PID.TID 0000.0001)     ;
(PID.TID 0000.0001) PTRACERS_ImplVertAdv = /* implicit vert. advection flag */
(PID.TID 0000.0001)                   F
(PID.TID 0000.0001)     ;
(PID.TID 0000.0001) PTRACERS_diffKh = /* Laplacian Diffusivity */
(PID.TID 0000.0001)                 0.000000000000000E+00
(PID.TID 0000.0001)     ;
(PID.TID 0000.0001) PTRACERS_diffK4 = /* Biharmonic Diffusivity */
(PID.TID 0000.0001)                 0.000000000000000E+00
(PID.TID 0000.0001)     ;
(PID.TID 0000.0001) PTRACERS_diffKrNr = /* Vertical Diffusivity */
(PID.TID 0000.0001)    35 @  1.000000000000000E-05              /* K =  1: 35 */
(PID.TID 0000.0001)     ;
(PID.TID 0000.0001) PTRACERS_useGMRedi = /* apply GM-Redi */
(PID.TID 0000.0001)                   F
(PID.TID 0000.0001)     ;
(PID.TID 0000.0001) PTRACERS_useDWNSLP = /* apply DOWN-SLOPE Flow */
(PID.TID 0000.0001)                   F
(PID.TID 0000.0001)     ;
(PID.TID 0000.0001) PTRACERS_useKPP = /* apply KPP scheme */
(PID.TID 0000.0001)                   F
(PID.TID 0000.0001)     ;
(PID.TID 0000.0001) PTRACERS_ref = /* Reference vertical profile */
(PID.TID 0000.0001)    35 @  0.000000000000000E+00              /* K =  1: 35 */
(PID.TID 0000.0001)     ;
(PID.TID 0000.0001) PTRACERS_EvPrRn =/* tracer conc. in Evap. & Rain */
(PID.TID 0000.0001)                 1.234567000000000E+05
(PID.TID 0000.0001)     ;
(PID.TID 0000.0001)  -----------------------------------
(PID.TID 0000.0001)  tracer number :   11
(PID.TID 0000.0001) PTRACERS_names = /* Tracer short name */
(PID.TID 0000.0001)               'DOFe'
(PID.TID 0000.0001)     ;
(PID.TID 0000.0001) PTRACERS_long_names = /* Tracer long name */
(PID.TID 0000.0001)               ''
(PID.TID 0000.0001)     ;
(PID.TID 0000.0001) PTRACERS_ioLabel = /* tracer IO Label */
(PID.TID 0000.0001)               '11'
(PID.TID 0000.0001)     ;
(PID.TID 0000.0001) PTRACERS_advScheme = /* Advection Scheme */
(PID.TID 0000.0001)                      33
(PID.TID 0000.0001)     ;
(PID.TID 0000.0001) PTRACERS_SOM_Advection = /* tracer uses SOM advection scheme */
(PID.TID 0000.0001)                   F
(PID.TID 0000.0001)     ;
(PID.TID 0000.0001) PTRACERS_ImplVertAdv = /* implicit vert. advection flag */
(PID.TID 0000.0001)                   F
(PID.TID 0000.0001)     ;
(PID.TID 0000.0001) PTRACERS_diffKh = /* Laplacian Diffusivity */
(PID.TID 0000.0001)                 0.000000000000000E+00
(PID.TID 0000.0001)     ;
(PID.TID 0000.0001) PTRACERS_diffK4 = /* Biharmonic Diffusivity */
(PID.TID 0000.0001)                 0.000000000000000E+00
(PID.TID 0000.0001)     ;
(PID.TID 0000.0001) PTRACERS_diffKrNr = /* Vertical Diffusivity */
(PID.TID 0000.0001)    35 @  1.000000000000000E-05              /* K =  1: 35 */
(PID.TID 0000.0001)     ;
(PID.TID 0000.0001) PTRACERS_useGMRedi = /* apply GM-Redi */
(PID.TID 0000.0001)                   F
(PID.TID 0000.0001)     ;
(PID.TID 0000.0001) PTRACERS_useDWNSLP = /* apply DOWN-SLOPE Flow */
(PID.TID 0000.0001)                   F
(PID.TID 0000.0001)     ;
(PID.TID 0000.0001) PTRACERS_useKPP = /* apply KPP scheme */
(PID.TID 0000.0001)                   F
(PID.TID 0000.0001)     ;
(PID.TID 0000.0001) PTRACERS_ref = /* Reference vertical profile */
(PID.TID 0000.0001)    35 @  0.000000000000000E+00              /* K =  1: 35 */
(PID.TID 0000.0001)     ;
(PID.TID 0000.0001) PTRACERS_EvPrRn =/* tracer conc. in Evap. & Rain */
(PID.TID 0000.0001)                 1.234567000000000E+05
(PID.TID 0000.0001)     ;
(PID.TID 0000.0001)  -----------------------------------
(PID.TID 0000.0001)  tracer number :   12
(PID.TID 0000.0001) PTRACERS_names = /* Tracer short name */
(PID.TID 0000.0001)               'POC'
(PID.TID 0000.0001)     ;
(PID.TID 0000.0001) PTRACERS_long_names = /* Tracer long name */
(PID.TID 0000.0001)               ''
(PID.TID 0000.0001)     ;
(PID.TID 0000.0001) PTRACERS_ioLabel = /* tracer IO Label */
(PID.TID 0000.0001)               '12'
(PID.TID 0000.0001)     ;
(PID.TID 0000.0001) PTRACERS_advScheme = /* Advection Scheme */
(PID.TID 0000.0001)                      33
(PID.TID 0000.0001)     ;
(PID.TID 0000.0001) PTRACERS_SOM_Advection = /* tracer uses SOM advection scheme */
(PID.TID 0000.0001)                   F
(PID.TID 0000.0001)     ;
(PID.TID 0000.0001) PTRACERS_ImplVertAdv = /* implicit vert. advection flag */
(PID.TID 0000.0001)                   F
(PID.TID 0000.0001)     ;
(PID.TID 0000.0001) PTRACERS_diffKh = /* Laplacian Diffusivity */
(PID.TID 0000.0001)                 0.000000000000000E+00
(PID.TID 0000.0001)     ;
(PID.TID 0000.0001) PTRACERS_diffK4 = /* Biharmonic Diffusivity */
(PID.TID 0000.0001)                 0.000000000000000E+00
(PID.TID 0000.0001)     ;
(PID.TID 0000.0001) PTRACERS_diffKrNr = /* Vertical Diffusivity */
(PID.TID 0000.0001)    35 @  1.000000000000000E-05              /* K =  1: 35 */
(PID.TID 0000.0001)     ;
(PID.TID 0000.0001) PTRACERS_useGMRedi = /* apply GM-Redi */
(PID.TID 0000.0001)                   F
(PID.TID 0000.0001)     ;
(PID.TID 0000.0001) PTRACERS_useDWNSLP = /* apply DOWN-SLOPE Flow */
(PID.TID 0000.0001)                   F
(PID.TID 0000.0001)     ;
(PID.TID 0000.0001) PTRACERS_useKPP = /* apply KPP scheme */
(PID.TID 0000.0001)                   F
(PID.TID 0000.0001)     ;
(PID.TID 0000.0001) PTRACERS_ref = /* Reference vertical profile */
(PID.TID 0000.0001)    35 @  0.000000000000000E+00              /* K =  1: 35 */
(PID.TID 0000.0001)     ;
(PID.TID 0000.0001) PTRACERS_EvPrRn =/* tracer conc. in Evap. & Rain */
(PID.TID 0000.0001)                 1.234567000000000E+05
(PID.TID 0000.0001)     ;
(PID.TID 0000.0001)  -----------------------------------
(PID.TID 0000.0001)  tracer number :   13
(PID.TID 0000.0001) PTRACERS_names = /* Tracer short name */
(PID.TID 0000.0001)               'PON'
(PID.TID 0000.0001)     ;
(PID.TID 0000.0001) PTRACERS_long_names = /* Tracer long name */
(PID.TID 0000.0001)               ''
(PID.TID 0000.0001)     ;
(PID.TID 0000.0001) PTRACERS_ioLabel = /* tracer IO Label */
(PID.TID 0000.0001)               '13'
(PID.TID 0000.0001)     ;
(PID.TID 0000.0001) PTRACERS_advScheme = /* Advection Scheme */
(PID.TID 0000.0001)                      33
(PID.TID 0000.0001)     ;
(PID.TID 0000.0001) PTRACERS_SOM_Advection = /* tracer uses SOM advection scheme */
(PID.TID 0000.0001)                   F
(PID.TID 0000.0001)     ;
(PID.TID 0000.0001) PTRACERS_ImplVertAdv = /* implicit vert. advection flag */
(PID.TID 0000.0001)                   F
(PID.TID 0000.0001)     ;
(PID.TID 0000.0001) PTRACERS_diffKh = /* Laplacian Diffusivity */
(PID.TID 0000.0001)                 0.000000000000000E+00
(PID.TID 0000.0001)     ;
(PID.TID 0000.0001) PTRACERS_diffK4 = /* Biharmonic Diffusivity */
(PID.TID 0000.0001)                 0.000000000000000E+00
(PID.TID 0000.0001)     ;
(PID.TID 0000.0001) PTRACERS_diffKrNr = /* Vertical Diffusivity */
(PID.TID 0000.0001)    35 @  1.000000000000000E-05              /* K =  1: 35 */
(PID.TID 0000.0001)     ;
(PID.TID 0000.0001) PTRACERS_useGMRedi = /* apply GM-Redi */
(PID.TID 0000.0001)                   F
(PID.TID 0000.0001)     ;
(PID.TID 0000.0001) PTRACERS_useDWNSLP = /* apply DOWN-SLOPE Flow */
(PID.TID 0000.0001)                   F
(PID.TID 0000.0001)     ;
(PID.TID 0000.0001) PTRACERS_useKPP = /* apply KPP scheme */
(PID.TID 0000.0001)                   F
(PID.TID 0000.0001)     ;
(PID.TID 0000.0001) PTRACERS_ref = /* Reference vertical profile */
(PID.TID 0000.0001)    35 @  0.000000000000000E+00              /* K =  1: 35 */
(PID.TID 0000.0001)     ;
(PID.TID 0000.0001) PTRACERS_EvPrRn =/* tracer conc. in Evap. & Rain */
(PID.TID 0000.0001)                 1.234567000000000E+05
(PID.TID 0000.0001)     ;
(PID.TID 0000.0001)  -----------------------------------
(PID.TID 0000.0001)  tracer number :   14
(PID.TID 0000.0001) PTRACERS_names = /* Tracer short name */
(PID.TID 0000.0001)               'POP'
(PID.TID 0000.0001)     ;
(PID.TID 0000.0001) PTRACERS_long_names = /* Tracer long name */
(PID.TID 0000.0001)               ''
(PID.TID 0000.0001)     ;
(PID.TID 0000.0001) PTRACERS_ioLabel = /* tracer IO Label */
(PID.TID 0000.0001)               '14'
(PID.TID 0000.0001)     ;
(PID.TID 0000.0001) PTRACERS_advScheme = /* Advection Scheme */
(PID.TID 0000.0001)                      33
(PID.TID 0000.0001)     ;
(PID.TID 0000.0001) PTRACERS_SOM_Advection = /* tracer uses SOM advection scheme */
(PID.TID 0000.0001)                   F
(PID.TID 0000.0001)     ;
(PID.TID 0000.0001) PTRACERS_ImplVertAdv = /* implicit vert. advection flag */
(PID.TID 0000.0001)                   F
(PID.TID 0000.0001)     ;
(PID.TID 0000.0001) PTRACERS_diffKh = /* Laplacian Diffusivity */
(PID.TID 0000.0001)                 0.000000000000000E+00
(PID.TID 0000.0001)     ;
(PID.TID 0000.0001) PTRACERS_diffK4 = /* Biharmonic Diffusivity */
(PID.TID 0000.0001)                 0.000000000000000E+00
(PID.TID 0000.0001)     ;
(PID.TID 0000.0001) PTRACERS_diffKrNr = /* Vertical Diffusivity */
(PID.TID 0000.0001)    35 @  1.000000000000000E-05              /* K =  1: 35 */
(PID.TID 0000.0001)     ;
(PID.TID 0000.0001) PTRACERS_useGMRedi = /* apply GM-Redi */
(PID.TID 0000.0001)                   F
(PID.TID 0000.0001)     ;
(PID.TID 0000.0001) PTRACERS_useDWNSLP = /* apply DOWN-SLOPE Flow */
(PID.TID 0000.0001)                   F
(PID.TID 0000.0001)     ;
(PID.TID 0000.0001) PTRACERS_useKPP = /* apply KPP scheme */
(PID.TID 0000.0001)                   F
(PID.TID 0000.0001)     ;
(PID.TID 0000.0001) PTRACERS_ref = /* Reference vertical profile */
(PID.TID 0000.0001)    35 @  0.000000000000000E+00              /* K =  1: 35 */
(PID.TID 0000.0001)     ;
(PID.TID 0000.0001) PTRACERS_EvPrRn =/* tracer conc. in Evap. & Rain */
(PID.TID 0000.0001)                 1.234567000000000E+05
(PID.TID 0000.0001)     ;
(PID.TID 0000.0001)  -----------------------------------
(PID.TID 0000.0001)  tracer number :   15
(PID.TID 0000.0001) PTRACERS_names = /* Tracer short name */
(PID.TID 0000.0001)               'POSi'
(PID.TID 0000.0001)     ;
(PID.TID 0000.0001) PTRACERS_long_names = /* Tracer long name */
(PID.TID 0000.0001)               ''
(PID.TID 0000.0001)     ;
(PID.TID 0000.0001) PTRACERS_ioLabel = /* tracer IO Label */
(PID.TID 0000.0001)               '15'
(PID.TID 0000.0001)     ;
(PID.TID 0000.0001) PTRACERS_advScheme = /* Advection Scheme */
(PID.TID 0000.0001)                      33
(PID.TID 0000.0001)     ;
(PID.TID 0000.0001) PTRACERS_SOM_Advection = /* tracer uses SOM advection scheme */
(PID.TID 0000.0001)                   F
(PID.TID 0000.0001)     ;
(PID.TID 0000.0001) PTRACERS_ImplVertAdv = /* implicit vert. advection flag */
(PID.TID 0000.0001)                   F
(PID.TID 0000.0001)     ;
(PID.TID 0000.0001) PTRACERS_diffKh = /* Laplacian Diffusivity */
(PID.TID 0000.0001)                 0.000000000000000E+00
(PID.TID 0000.0001)     ;
(PID.TID 0000.0001) PTRACERS_diffK4 = /* Biharmonic Diffusivity */
(PID.TID 0000.0001)                 0.000000000000000E+00
(PID.TID 0000.0001)     ;
(PID.TID 0000.0001) PTRACERS_diffKrNr = /* Vertical Diffusivity */
(PID.TID 0000.0001)    35 @  1.000000000000000E-05              /* K =  1: 35 */
(PID.TID 0000.0001)     ;
(PID.TID 0000.0001) PTRACERS_useGMRedi = /* apply GM-Redi */
(PID.TID 0000.0001)                   F
(PID.TID 0000.0001)     ;
(PID.TID 0000.0001) PTRACERS_useDWNSLP = /* apply DOWN-SLOPE Flow */
(PID.TID 0000.0001)                   F
(PID.TID 0000.0001)     ;
(PID.TID 0000.0001) PTRACERS_useKPP = /* apply KPP scheme */
(PID.TID 0000.0001)                   F
(PID.TID 0000.0001)     ;
(PID.TID 0000.0001) PTRACERS_ref = /* Reference vertical profile */
(PID.TID 0000.0001)    35 @  0.000000000000000E+00              /* K =  1: 35 */
(PID.TID 0000.0001)     ;
(PID.TID 0000.0001) PTRACERS_EvPrRn =/* tracer conc. in Evap. & Rain */
(PID.TID 0000.0001)                 1.234567000000000E+05
(PID.TID 0000.0001)     ;
(PID.TID 0000.0001)  -----------------------------------
(PID.TID 0000.0001)  tracer number :   16
(PID.TID 0000.0001) PTRACERS_names = /* Tracer short name */
(PID.TID 0000.0001)               'POFe'
(PID.TID 0000.0001)     ;
(PID.TID 0000.0001) PTRACERS_long_names = /* Tracer long name */
(PID.TID 0000.0001)               ''
(PID.TID 0000.0001)     ;
(PID.TID 0000.0001) PTRACERS_ioLabel = /* tracer IO Label */
(PID.TID 0000.0001)               '16'
(PID.TID 0000.0001)     ;
(PID.TID 0000.0001) PTRACERS_advScheme = /* Advection Scheme */
(PID.TID 0000.0001)                      33
(PID.TID 0000.0001)     ;
(PID.TID 0000.0001) PTRACERS_SOM_Advection = /* tracer uses SOM advection scheme */
(PID.TID 0000.0001)                   F
(PID.TID 0000.0001)     ;
(PID.TID 0000.0001) PTRACERS_ImplVertAdv = /* implicit vert. advection flag */
(PID.TID 0000.0001)                   F
(PID.TID 0000.0001)     ;
(PID.TID 0000.0001) PTRACERS_diffKh = /* Laplacian Diffusivity */
(PID.TID 0000.0001)                 0.000000000000000E+00
(PID.TID 0000.0001)     ;
(PID.TID 0000.0001) PTRACERS_diffK4 = /* Biharmonic Diffusivity */
(PID.TID 0000.0001)                 0.000000000000000E+00
(PID.TID 0000.0001)     ;
(PID.TID 0000.0001) PTRACERS_diffKrNr = /* Vertical Diffusivity */
(PID.TID 0000.0001)    35 @  1.000000000000000E-05              /* K =  1: 35 */
(PID.TID 0000.0001)     ;
(PID.TID 0000.0001) PTRACERS_useGMRedi = /* apply GM-Redi */
(PID.TID 0000.0001)                   F
(PID.TID 0000.0001)     ;
(PID.TID 0000.0001) PTRACERS_useDWNSLP = /* apply DOWN-SLOPE Flow */
(PID.TID 0000.0001)                   F
(PID.TID 0000.0001)     ;
(PID.TID 0000.0001) PTRACERS_useKPP = /* apply KPP scheme */
(PID.TID 0000.0001)                   F
(PID.TID 0000.0001)     ;
(PID.TID 0000.0001) PTRACERS_ref = /* Reference vertical profile */
(PID.TID 0000.0001)    35 @  0.000000000000000E+00              /* K =  1: 35 */
(PID.TID 0000.0001)     ;
(PID.TID 0000.0001) PTRACERS_EvPrRn =/* tracer conc. in Evap. & Rain */
(PID.TID 0000.0001)                 1.234567000000000E+05
(PID.TID 0000.0001)     ;
(PID.TID 0000.0001)  -----------------------------------
(PID.TID 0000.0001)  tracer number :   17
(PID.TID 0000.0001) PTRACERS_names = /* Tracer short name */
(PID.TID 0000.0001)               'PIC'
(PID.TID 0000.0001)     ;
(PID.TID 0000.0001) PTRACERS_long_names = /* Tracer long name */
(PID.TID 0000.0001)               ''
(PID.TID 0000.0001)     ;
(PID.TID 0000.0001) PTRACERS_ioLabel = /* tracer IO Label */
(PID.TID 0000.0001)               '17'
(PID.TID 0000.0001)     ;
(PID.TID 0000.0001) PTRACERS_advScheme = /* Advection Scheme */
(PID.TID 0000.0001)                      33
(PID.TID 0000.0001)     ;
(PID.TID 0000.0001) PTRACERS_SOM_Advection = /* tracer uses SOM advection scheme */
(PID.TID 0000.0001)                   F
(PID.TID 0000.0001)     ;
(PID.TID 0000.0001) PTRACERS_ImplVertAdv = /* implicit vert. advection flag */
(PID.TID 0000.0001)                   F
(PID.TID 0000.0001)     ;
(PID.TID 0000.0001) PTRACERS_diffKh = /* Laplacian Diffusivity */
(PID.TID 0000.0001)                 0.000000000000000E+00
(PID.TID 0000.0001)     ;
(PID.TID 0000.0001) PTRACERS_diffK4 = /* Biharmonic Diffusivity */
(PID.TID 0000.0001)                 0.000000000000000E+00
(PID.TID 0000.0001)     ;
(PID.TID 0000.0001) PTRACERS_diffKrNr = /* Vertical Diffusivity */
(PID.TID 0000.0001)    35 @  1.000000000000000E-05              /* K =  1: 35 */
(PID.TID 0000.0001)     ;
(PID.TID 0000.0001) PTRACERS_useGMRedi = /* apply GM-Redi */
(PID.TID 0000.0001)                   F
(PID.TID 0000.0001)     ;
(PID.TID 0000.0001) PTRACERS_useDWNSLP = /* apply DOWN-SLOPE Flow */
(PID.TID 0000.0001)                   F
(PID.TID 0000.0001)     ;
(PID.TID 0000.0001) PTRACERS_useKPP = /* apply KPP scheme */
(PID.TID 0000.0001)                   F
(PID.TID 0000.0001)     ;
(PID.TID 0000.0001) PTRACERS_ref = /* Reference vertical profile */
(PID.TID 0000.0001)    35 @  0.000000000000000E+00              /* K =  1: 35 */
(PID.TID 0000.0001)     ;
(PID.TID 0000.0001) PTRACERS_EvPrRn =/* tracer conc. in Evap. & Rain */
(PID.TID 0000.0001)                 1.234567000000000E+05
(PID.TID 0000.0001)     ;
(PID.TID 0000.0001)  -----------------------------------
(PID.TID 0000.0001)  tracer number :   18
(PID.TID 0000.0001) PTRACERS_names = /* Tracer short name */
(PID.TID 0000.0001)               'CDOM'
(PID.TID 0000.0001)     ;
(PID.TID 0000.0001) PTRACERS_long_names = /* Tracer long name */
(PID.TID 0000.0001)               ''
(PID.TID 0000.0001)     ;
(PID.TID 0000.0001) PTRACERS_ioLabel = /* tracer IO Label */
(PID.TID 0000.0001)               '18'
(PID.TID 0000.0001)     ;
(PID.TID 0000.0001) PTRACERS_advScheme = /* Advection Scheme */
(PID.TID 0000.0001)                      33
(PID.TID 0000.0001)     ;
(PID.TID 0000.0001) PTRACERS_SOM_Advection = /* tracer uses SOM advection scheme */
(PID.TID 0000.0001)                   F
(PID.TID 0000.0001)     ;
(PID.TID 0000.0001) PTRACERS_ImplVertAdv = /* implicit vert. advection flag */
(PID.TID 0000.0001)                   F
(PID.TID 0000.0001)     ;
(PID.TID 0000.0001) PTRACERS_diffKh = /* Laplacian Diffusivity */
(PID.TID 0000.0001)                 0.000000000000000E+00
(PID.TID 0000.0001)     ;
(PID.TID 0000.0001) PTRACERS_diffK4 = /* Biharmonic Diffusivity */
(PID.TID 0000.0001)                 0.000000000000000E+00
(PID.TID 0000.0001)     ;
(PID.TID 0000.0001) PTRACERS_diffKrNr = /* Vertical Diffusivity */
(PID.TID 0000.0001)    35 @  1.000000000000000E-05              /* K =  1: 35 */
(PID.TID 0000.0001)     ;
(PID.TID 0000.0001) PTRACERS_useGMRedi = /* apply GM-Redi */
(PID.TID 0000.0001)                   F
(PID.TID 0000.0001)     ;
(PID.TID 0000.0001) PTRACERS_useDWNSLP = /* apply DOWN-SLOPE Flow */
(PID.TID 0000.0001)                   F
(PID.TID 0000.0001)     ;
(PID.TID 0000.0001) PTRACERS_useKPP = /* apply KPP scheme */
(PID.TID 0000.0001)                   F
(PID.TID 0000.0001)     ;
(PID.TID 0000.0001) PTRACERS_ref = /* Reference vertical profile */
(PID.TID 0000.0001)    35 @  0.000000000000000E+00              /* K =  1: 35 */
(PID.TID 0000.0001)     ;
(PID.TID 0000.0001) PTRACERS_EvPrRn =/* tracer conc. in Evap. & Rain */
(PID.TID 0000.0001)                 1.234567000000000E+05
(PID.TID 0000.0001)     ;
(PID.TID 0000.0001)  -----------------------------------
(PID.TID 0000.0001)  tracer number :   19
(PID.TID 0000.0001) PTRACERS_names = /* Tracer short name */
(PID.TID 0000.0001)               'c01'
(PID.TID 0000.0001)     ;
(PID.TID 0000.0001) PTRACERS_long_names = /* Tracer long name */
(PID.TID 0000.0001)               ''
(PID.TID 0000.0001)     ;
(PID.TID 0000.0001) PTRACERS_ioLabel = /* tracer IO Label */
(PID.TID 0000.0001)               '19'
(PID.TID 0000.0001)     ;
(PID.TID 0000.0001) PTRACERS_advScheme = /* Advection Scheme */
(PID.TID 0000.0001)                      33
(PID.TID 0000.0001)     ;
(PID.TID 0000.0001) PTRACERS_SOM_Advection = /* tracer uses SOM advection scheme */
(PID.TID 0000.0001)                   F
(PID.TID 0000.0001)     ;
(PID.TID 0000.0001) PTRACERS_ImplVertAdv = /* implicit vert. advection flag */
(PID.TID 0000.0001)                   F
(PID.TID 0000.0001)     ;
(PID.TID 0000.0001) PTRACERS_diffKh = /* Laplacian Diffusivity */
(PID.TID 0000.0001)                 0.000000000000000E+00
(PID.TID 0000.0001)     ;
(PID.TID 0000.0001) PTRACERS_diffK4 = /* Biharmonic Diffusivity */
(PID.TID 0000.0001)                 0.000000000000000E+00
(PID.TID 0000.0001)     ;
(PID.TID 0000.0001) PTRACERS_diffKrNr = /* Vertical Diffusivity */
(PID.TID 0000.0001)    35 @  1.000000000000000E-05              /* K =  1: 35 */
(PID.TID 0000.0001)     ;
(PID.TID 0000.0001) PTRACERS_useGMRedi = /* apply GM-Redi */
(PID.TID 0000.0001)                   F
(PID.TID 0000.0001)     ;
(PID.TID 0000.0001) PTRACERS_useDWNSLP = /* apply DOWN-SLOPE Flow */
(PID.TID 0000.0001)                   F
(PID.TID 0000.0001)     ;
(PID.TID 0000.0001) PTRACERS_useKPP = /* apply KPP scheme */
(PID.TID 0000.0001)                   F
(PID.TID 0000.0001)     ;
(PID.TID 0000.0001) PTRACERS_ref = /* Reference vertical profile */
(PID.TID 0000.0001)    35 @  0.000000000000000E+00              /* K =  1: 35 */
(PID.TID 0000.0001)     ;
(PID.TID 0000.0001) PTRACERS_EvPrRn =/* tracer conc. in Evap. & Rain */
(PID.TID 0000.0001)                 1.234567000000000E+05
(PID.TID 0000.0001)     ;
(PID.TID 0000.0001)  -----------------------------------
(PID.TID 0000.0001)  tracer number :   20
(PID.TID 0000.0001) PTRACERS_names = /* Tracer short name */
(PID.TID 0000.0001)               'c02'
(PID.TID 0000.0001)     ;
(PID.TID 0000.0001) PTRACERS_long_names = /* Tracer long name */
(PID.TID 0000.0001)               ''
(PID.TID 0000.0001)     ;
(PID.TID 0000.0001) PTRACERS_ioLabel = /* tracer IO Label */
(PID.TID 0000.0001)               '20'
(PID.TID 0000.0001)     ;
(PID.TID 0000.0001) PTRACERS_advScheme = /* Advection Scheme */
(PID.TID 0000.0001)                      33
(PID.TID 0000.0001)     ;
(PID.TID 0000.0001) PTRACERS_SOM_Advection = /* tracer uses SOM advection scheme */
(PID.TID 0000.0001)                   F
(PID.TID 0000.0001)     ;
(PID.TID 0000.0001) PTRACERS_ImplVertAdv = /* implicit vert. advection flag */
(PID.TID 0000.0001)                   F
(PID.TID 0000.0001)     ;
(PID.TID 0000.0001) PTRACERS_diffKh = /* Laplacian Diffusivity */
(PID.TID 0000.0001)                 0.000000000000000E+00
(PID.TID 0000.0001)     ;
(PID.TID 0000.0001) PTRACERS_diffK4 = /* Biharmonic Diffusivity */
(PID.TID 0000.0001)                 0.000000000000000E+00
(PID.TID 0000.0001)     ;
(PID.TID 0000.0001) PTRACERS_diffKrNr = /* Vertical Diffusivity */
(PID.TID 0000.0001)    35 @  1.000000000000000E-05              /* K =  1: 35 */
(PID.TID 0000.0001)     ;
(PID.TID 0000.0001) PTRACERS_useGMRedi = /* apply GM-Redi */
(PID.TID 0000.0001)                   F
(PID.TID 0000.0001)     ;
(PID.TID 0000.0001) PTRACERS_useDWNSLP = /* apply DOWN-SLOPE Flow */
(PID.TID 0000.0001)                   F
(PID.TID 0000.0001)     ;
(PID.TID 0000.0001) PTRACERS_useKPP = /* apply KPP scheme */
(PID.TID 0000.0001)                   F
(PID.TID 0000.0001)     ;
(PID.TID 0000.0001) PTRACERS_ref = /* Reference vertical profile */
(PID.TID 0000.0001)    35 @  0.000000000000000E+00              /* K =  1: 35 */
(PID.TID 0000.0001)     ;
(PID.TID 0000.0001) PTRACERS_EvPrRn =/* tracer conc. in Evap. & Rain */
(PID.TID 0000.0001)                 1.234567000000000E+05
(PID.TID 0000.0001)     ;
(PID.TID 0000.0001)  -----------------------------------
(PID.TID 0000.0001)  tracer number :   21
(PID.TID 0000.0001) PTRACERS_names = /* Tracer short name */
(PID.TID 0000.0001)               'c03'
(PID.TID 0000.0001)     ;
(PID.TID 0000.0001) PTRACERS_long_names = /* Tracer long name */
(PID.TID 0000.0001)               ''
(PID.TID 0000.0001)     ;
(PID.TID 0000.0001) PTRACERS_ioLabel = /* tracer IO Label */
(PID.TID 0000.0001)               '21'
(PID.TID 0000.0001)     ;
(PID.TID 0000.0001) PTRACERS_advScheme = /* Advection Scheme */
(PID.TID 0000.0001)                      33
(PID.TID 0000.0001)     ;
(PID.TID 0000.0001) PTRACERS_SOM_Advection = /* tracer uses SOM advection scheme */
(PID.TID 0000.0001)                   F
(PID.TID 0000.0001)     ;
(PID.TID 0000.0001) PTRACERS_ImplVertAdv = /* implicit vert. advection flag */
(PID.TID 0000.0001)                   F
(PID.TID 0000.0001)     ;
(PID.TID 0000.0001) PTRACERS_diffKh = /* Laplacian Diffusivity */
(PID.TID 0000.0001)                 0.000000000000000E+00
(PID.TID 0000.0001)     ;
(PID.TID 0000.0001) PTRACERS_diffK4 = /* Biharmonic Diffusivity */
(PID.TID 0000.0001)                 0.000000000000000E+00
(PID.TID 0000.0001)     ;
(PID.TID 0000.0001) PTRACERS_diffKrNr = /* Vertical Diffusivity */
(PID.TID 0000.0001)    35 @  1.000000000000000E-05              /* K =  1: 35 */
(PID.TID 0000.0001)     ;
(PID.TID 0000.0001) PTRACERS_useGMRedi = /* apply GM-Redi */
(PID.TID 0000.0001)                   F
(PID.TID 0000.0001)     ;
(PID.TID 0000.0001) PTRACERS_useDWNSLP = /* apply DOWN-SLOPE Flow */
(PID.TID 0000.0001)                   F
(PID.TID 0000.0001)     ;
(PID.TID 0000.0001) PTRACERS_useKPP = /* apply KPP scheme */
(PID.TID 0000.0001)                   F
(PID.TID 0000.0001)     ;
(PID.TID 0000.0001) PTRACERS_ref = /* Reference vertical profile */
(PID.TID 0000.0001)    35 @  0.000000000000000E+00              /* K =  1: 35 */
(PID.TID 0000.0001)     ;
(PID.TID 0000.0001) PTRACERS_EvPrRn =/* tracer conc. in Evap. & Rain */
(PID.TID 0000.0001)                 1.234567000000000E+05
(PID.TID 0000.0001)     ;
(PID.TID 0000.0001)  -----------------------------------
(PID.TID 0000.0001)  tracer number :   22
(PID.TID 0000.0001) PTRACERS_names = /* Tracer short name */
(PID.TID 0000.0001)               'c04'
(PID.TID 0000.0001)     ;
(PID.TID 0000.0001) PTRACERS_long_names = /* Tracer long name */
(PID.TID 0000.0001)               ''
(PID.TID 0000.0001)     ;
(PID.TID 0000.0001) PTRACERS_ioLabel = /* tracer IO Label */
(PID.TID 0000.0001)               '22'
(PID.TID 0000.0001)     ;
(PID.TID 0000.0001) PTRACERS_advScheme = /* Advection Scheme */
(PID.TID 0000.0001)                      33
(PID.TID 0000.0001)     ;
(PID.TID 0000.0001) PTRACERS_SOM_Advection = /* tracer uses SOM advection scheme */
(PID.TID 0000.0001)                   F
(PID.TID 0000.0001)     ;
(PID.TID 0000.0001) PTRACERS_ImplVertAdv = /* implicit vert. advection flag */
(PID.TID 0000.0001)                   F
(PID.TID 0000.0001)     ;
(PID.TID 0000.0001) PTRACERS_diffKh = /* Laplacian Diffusivity */
(PID.TID 0000.0001)                 0.000000000000000E+00
(PID.TID 0000.0001)     ;
(PID.TID 0000.0001) PTRACERS_diffK4 = /* Biharmonic Diffusivity */
(PID.TID 0000.0001)                 0.000000000000000E+00
(PID.TID 0000.0001)     ;
(PID.TID 0000.0001) PTRACERS_diffKrNr = /* Vertical Diffusivity */
(PID.TID 0000.0001)    35 @  1.000000000000000E-05              /* K =  1: 35 */
(PID.TID 0000.0001)     ;
(PID.TID 0000.0001) PTRACERS_useGMRedi = /* apply GM-Redi */
(PID.TID 0000.0001)                   F
(PID.TID 0000.0001)     ;
(PID.TID 0000.0001) PTRACERS_useDWNSLP = /* apply DOWN-SLOPE Flow */
(PID.TID 0000.0001)                   F
(PID.TID 0000.0001)     ;
(PID.TID 0000.0001) PTRACERS_useKPP = /* apply KPP scheme */
(PID.TID 0000.0001)                   F
(PID.TID 0000.0001)     ;
(PID.TID 0000.0001) PTRACERS_ref = /* Reference vertical profile */
(PID.TID 0000.0001)    35 @  0.000000000000000E+00              /* K =  1: 35 */
(PID.TID 0000.0001)     ;
(PID.TID 0000.0001) PTRACERS_EvPrRn =/* tracer conc. in Evap. & Rain */
(PID.TID 0000.0001)                 1.234567000000000E+05
(PID.TID 0000.0001)     ;
(PID.TID 0000.0001)  -----------------------------------
(PID.TID 0000.0001)  tracer number :   23
(PID.TID 0000.0001) PTRACERS_names = /* Tracer short name */
(PID.TID 0000.0001)               'c05'
(PID.TID 0000.0001)     ;
(PID.TID 0000.0001) PTRACERS_long_names = /* Tracer long name */
(PID.TID 0000.0001)               ''
(PID.TID 0000.0001)     ;
(PID.TID 0000.0001) PTRACERS_ioLabel = /* tracer IO Label */
(PID.TID 0000.0001)               '23'
(PID.TID 0000.0001)     ;
(PID.TID 0000.0001) PTRACERS_advScheme = /* Advection Scheme */
(PID.TID 0000.0001)                      33
(PID.TID 0000.0001)     ;
(PID.TID 0000.0001) PTRACERS_SOM_Advection = /* tracer uses SOM advection scheme */
(PID.TID 0000.0001)                   F
(PID.TID 0000.0001)     ;
(PID.TID 0000.0001) PTRACERS_ImplVertAdv = /* implicit vert. advection flag */
(PID.TID 0000.0001)                   F
(PID.TID 0000.0001)     ;
(PID.TID 0000.0001) PTRACERS_diffKh = /* Laplacian Diffusivity */
(PID.TID 0000.0001)                 0.000000000000000E+00
(PID.TID 0000.0001)     ;
(PID.TID 0000.0001) PTRACERS_diffK4 = /* Biharmonic Diffusivity */
(PID.TID 0000.0001)                 0.000000000000000E+00
(PID.TID 0000.0001)     ;
(PID.TID 0000.0001) PTRACERS_diffKrNr = /* Vertical Diffusivity */
(PID.TID 0000.0001)    35 @  1.000000000000000E-05              /* K =  1: 35 */
(PID.TID 0000.0001)     ;
(PID.TID 0000.0001) PTRACERS_useGMRedi = /* apply GM-Redi */
(PID.TID 0000.0001)                   F
(PID.TID 0000.0001)     ;
(PID.TID 0000.0001) PTRACERS_useDWNSLP = /* apply DOWN-SLOPE Flow */
(PID.TID 0000.0001)                   F
(PID.TID 0000.0001)     ;
(PID.TID 0000.0001) PTRACERS_useKPP = /* apply KPP scheme */
(PID.TID 0000.0001)                   F
(PID.TID 0000.0001)     ;
(PID.TID 0000.0001) PTRACERS_ref = /* Reference vertical profile */
(PID.TID 0000.0001)    35 @  0.000000000000000E+00              /* K =  1: 35 */
(PID.TID 0000.0001)     ;
(PID.TID 0000.0001) PTRACERS_EvPrRn =/* tracer conc. in Evap. & Rain */
(PID.TID 0000.0001)                 1.234567000000000E+05
(PID.TID 0000.0001)     ;
(PID.TID 0000.0001)  -----------------------------------
(PID.TID 0000.0001)  tracer number :   24
(PID.TID 0000.0001) PTRACERS_names = /* Tracer short name */
(PID.TID 0000.0001)               'c06'
(PID.TID 0000.0001)     ;
(PID.TID 0000.0001) PTRACERS_long_names = /* Tracer long name */
(PID.TID 0000.0001)               ''
(PID.TID 0000.0001)     ;
(PID.TID 0000.0001) PTRACERS_ioLabel = /* tracer IO Label */
(PID.TID 0000.0001)               '24'
(PID.TID 0000.0001)     ;
(PID.TID 0000.0001) PTRACERS_advScheme = /* Advection Scheme */
(PID.TID 0000.0001)                      33
(PID.TID 0000.0001)     ;
(PID.TID 0000.0001) PTRACERS_SOM_Advection = /* tracer uses SOM advection scheme */
(PID.TID 0000.0001)                   F
(PID.TID 0000.0001)     ;
(PID.TID 0000.0001) PTRACERS_ImplVertAdv = /* implicit vert. advection flag */
(PID.TID 0000.0001)                   F
(PID.TID 0000.0001)     ;
(PID.TID 0000.0001) PTRACERS_diffKh = /* Laplacian Diffusivity */
(PID.TID 0000.0001)                 0.000000000000000E+00
(PID.TID 0000.0001)     ;
(PID.TID 0000.0001) PTRACERS_diffK4 = /* Biharmonic Diffusivity */
(PID.TID 0000.0001)                 0.000000000000000E+00
(PID.TID 0000.0001)     ;
(PID.TID 0000.0001) PTRACERS_diffKrNr = /* Vertical Diffusivity */
(PID.TID 0000.0001)    35 @  1.000000000000000E-05              /* K =  1: 35 */
(PID.TID 0000.0001)     ;
(PID.TID 0000.0001) PTRACERS_useGMRedi = /* apply GM-Redi */
(PID.TID 0000.0001)                   F
(PID.TID 0000.0001)     ;
(PID.TID 0000.0001) PTRACERS_useDWNSLP = /* apply DOWN-SLOPE Flow */
(PID.TID 0000.0001)                   F
(PID.TID 0000.0001)     ;
(PID.TID 0000.0001) PTRACERS_useKPP = /* apply KPP scheme */
(PID.TID 0000.0001)                   F
(PID.TID 0000.0001)     ;
(PID.TID 0000.0001) PTRACERS_ref = /* Reference vertical profile */
(PID.TID 0000.0001)    35 @  0.000000000000000E+00              /* K =  1: 35 */
(PID.TID 0000.0001)     ;
(PID.TID 0000.0001) PTRACERS_EvPrRn =/* tracer conc. in Evap. & Rain */
(PID.TID 0000.0001)                 1.234567000000000E+05
(PID.TID 0000.0001)     ;
(PID.TID 0000.0001)  -----------------------------------
(PID.TID 0000.0001)  tracer number :   25
(PID.TID 0000.0001) PTRACERS_names = /* Tracer short name */
(PID.TID 0000.0001)               'c07'
(PID.TID 0000.0001)     ;
(PID.TID 0000.0001) PTRACERS_long_names = /* Tracer long name */
(PID.TID 0000.0001)               ''
(PID.TID 0000.0001)     ;
(PID.TID 0000.0001) PTRACERS_ioLabel = /* tracer IO Label */
(PID.TID 0000.0001)               '25'
(PID.TID 0000.0001)     ;
(PID.TID 0000.0001) PTRACERS_advScheme = /* Advection Scheme */
(PID.TID 0000.0001)                      33
(PID.TID 0000.0001)     ;
(PID.TID 0000.0001) PTRACERS_SOM_Advection = /* tracer uses SOM advection scheme */
(PID.TID 0000.0001)                   F
(PID.TID 0000.0001)     ;
(PID.TID 0000.0001) PTRACERS_ImplVertAdv = /* implicit vert. advection flag */
(PID.TID 0000.0001)                   F
(PID.TID 0000.0001)     ;
(PID.TID 0000.0001) PTRACERS_diffKh = /* Laplacian Diffusivity */
(PID.TID 0000.0001)                 0.000000000000000E+00
(PID.TID 0000.0001)     ;
(PID.TID 0000.0001) PTRACERS_diffK4 = /* Biharmonic Diffusivity */
(PID.TID 0000.0001)                 0.000000000000000E+00
(PID.TID 0000.0001)     ;
(PID.TID 0000.0001) PTRACERS_diffKrNr = /* Vertical Diffusivity */
(PID.TID 0000.0001)    35 @  1.000000000000000E-05              /* K =  1: 35 */
(PID.TID 0000.0001)     ;
(PID.TID 0000.0001) PTRACERS_useGMRedi = /* apply GM-Redi */
(PID.TID 0000.0001)                   F
(PID.TID 0000.0001)     ;
(PID.TID 0000.0001) PTRACERS_useDWNSLP = /* apply DOWN-SLOPE Flow */
(PID.TID 0000.0001)                   F
(PID.TID 0000.0001)     ;
(PID.TID 0000.0001) PTRACERS_useKPP = /* apply KPP scheme */
(PID.TID 0000.0001)                   F
(PID.TID 0000.0001)     ;
(PID.TID 0000.0001) PTRACERS_ref = /* Reference vertical profile */
(PID.TID 0000.0001)    35 @  0.000000000000000E+00              /* K =  1: 35 */
(PID.TID 0000.0001)     ;
(PID.TID 0000.0001) PTRACERS_EvPrRn =/* tracer conc. in Evap. & Rain */
(PID.TID 0000.0001)                 1.234567000000000E+05
(PID.TID 0000.0001)     ;
(PID.TID 0000.0001)  -----------------------------------
(PID.TID 0000.0001)  tracer number :   26
(PID.TID 0000.0001) PTRACERS_names = /* Tracer short name */
(PID.TID 0000.0001)               'c08'
(PID.TID 0000.0001)     ;
(PID.TID 0000.0001) PTRACERS_long_names = /* Tracer long name */
(PID.TID 0000.0001)               ''
(PID.TID 0000.0001)     ;
(PID.TID 0000.0001) PTRACERS_ioLabel = /* tracer IO Label */
(PID.TID 0000.0001)               '26'
(PID.TID 0000.0001)     ;
(PID.TID 0000.0001) PTRACERS_advScheme = /* Advection Scheme */
(PID.TID 0000.0001)                      33
(PID.TID 0000.0001)     ;
(PID.TID 0000.0001) PTRACERS_SOM_Advection = /* tracer uses SOM advection scheme */
(PID.TID 0000.0001)                   F
(PID.TID 0000.0001)     ;
(PID.TID 0000.0001) PTRACERS_ImplVertAdv = /* implicit vert. advection flag */
(PID.TID 0000.0001)                   F
(PID.TID 0000.0001)     ;
(PID.TID 0000.0001) PTRACERS_diffKh = /* Laplacian Diffusivity */
(PID.TID 0000.0001)                 0.000000000000000E+00
(PID.TID 0000.0001)     ;
(PID.TID 0000.0001) PTRACERS_diffK4 = /* Biharmonic Diffusivity */
(PID.TID 0000.0001)                 0.000000000000000E+00
(PID.TID 0000.0001)     ;
(PID.TID 0000.0001) PTRACERS_diffKrNr = /* Vertical Diffusivity */
(PID.TID 0000.0001)    35 @  1.000000000000000E-05              /* K =  1: 35 */
(PID.TID 0000.0001)     ;
(PID.TID 0000.0001) PTRACERS_useGMRedi = /* apply GM-Redi */
(PID.TID 0000.0001)                   F
(PID.TID 0000.0001)     ;
(PID.TID 0000.0001) PTRACERS_useDWNSLP = /* apply DOWN-SLOPE Flow */
(PID.TID 0000.0001)                   F
(PID.TID 0000.0001)     ;
(PID.TID 0000.0001) PTRACERS_useKPP = /* apply KPP scheme */
(PID.TID 0000.0001)                   F
(PID.TID 0000.0001)     ;
(PID.TID 0000.0001) PTRACERS_ref = /* Reference vertical profile */
(PID.TID 0000.0001)    35 @  0.000000000000000E+00              /* K =  1: 35 */
(PID.TID 0000.0001)     ;
(PID.TID 0000.0001) PTRACERS_EvPrRn =/* tracer conc. in Evap. & Rain */
(PID.TID 0000.0001)                 1.234567000000000E+05
(PID.TID 0000.0001)     ;
(PID.TID 0000.0001)  -----------------------------------
(PID.TID 0000.0001)  tracer number :   27
(PID.TID 0000.0001) PTRACERS_names = /* Tracer short name */
(PID.TID 0000.0001)               'c09'
(PID.TID 0000.0001)     ;
(PID.TID 0000.0001) PTRACERS_long_names = /* Tracer long name */
(PID.TID 0000.0001)               ''
(PID.TID 0000.0001)     ;
(PID.TID 0000.0001) PTRACERS_ioLabel = /* tracer IO Label */
(PID.TID 0000.0001)               '27'
(PID.TID 0000.0001)     ;
(PID.TID 0000.0001) PTRACERS_advScheme = /* Advection Scheme */
(PID.TID 0000.0001)                      33
(PID.TID 0000.0001)     ;
(PID.TID 0000.0001) PTRACERS_SOM_Advection = /* tracer uses SOM advection scheme */
(PID.TID 0000.0001)                   F
(PID.TID 0000.0001)     ;
(PID.TID 0000.0001) PTRACERS_ImplVertAdv = /* implicit vert. advection flag */
(PID.TID 0000.0001)                   F
(PID.TID 0000.0001)     ;
(PID.TID 0000.0001) PTRACERS_diffKh = /* Laplacian Diffusivity */
(PID.TID 0000.0001)                 0.000000000000000E+00
(PID.TID 0000.0001)     ;
(PID.TID 0000.0001) PTRACERS_diffK4 = /* Biharmonic Diffusivity */
(PID.TID 0000.0001)                 0.000000000000000E+00
(PID.TID 0000.0001)     ;
(PID.TID 0000.0001) PTRACERS_diffKrNr = /* Vertical Diffusivity */
(PID.TID 0000.0001)    35 @  1.000000000000000E-05              /* K =  1: 35 */
(PID.TID 0000.0001)     ;
(PID.TID 0000.0001) PTRACERS_useGMRedi = /* apply GM-Redi */
(PID.TID 0000.0001)                   F
(PID.TID 0000.0001)     ;
(PID.TID 0000.0001) PTRACERS_useDWNSLP = /* apply DOWN-SLOPE Flow */
(PID.TID 0000.0001)                   F
(PID.TID 0000.0001)     ;
(PID.TID 0000.0001) PTRACERS_useKPP = /* apply KPP scheme */
(PID.TID 0000.0001)                   F
(PID.TID 0000.0001)     ;
(PID.TID 0000.0001) PTRACERS_ref = /* Reference vertical profile */
(PID.TID 0000.0001)    35 @  0.000000000000000E+00              /* K =  1: 35 */
(PID.TID 0000.0001)     ;
(PID.TID 0000.0001) PTRACERS_EvPrRn =/* tracer conc. in Evap. & Rain */
(PID.TID 0000.0001)                 1.234567000000000E+05
(PID.TID 0000.0001)     ;
(PID.TID 0000.0001)  -----------------------------------
(PID.TID 0000.0001)  tracer number :   28
(PID.TID 0000.0001) PTRACERS_names = /* Tracer short name */
(PID.TID 0000.0001)               'c10'
(PID.TID 0000.0001)     ;
(PID.TID 0000.0001) PTRACERS_long_names = /* Tracer long name */
(PID.TID 0000.0001)               ''
(PID.TID 0000.0001)     ;
(PID.TID 0000.0001) PTRACERS_ioLabel = /* tracer IO Label */
(PID.TID 0000.0001)               '28'
(PID.TID 0000.0001)     ;
(PID.TID 0000.0001) PTRACERS_advScheme = /* Advection Scheme */
(PID.TID 0000.0001)                      33
(PID.TID 0000.0001)     ;
(PID.TID 0000.0001) PTRACERS_SOM_Advection = /* tracer uses SOM advection scheme */
(PID.TID 0000.0001)                   F
(PID.TID 0000.0001)     ;
(PID.TID 0000.0001) PTRACERS_ImplVertAdv = /* implicit vert. advection flag */
(PID.TID 0000.0001)                   F
(PID.TID 0000.0001)     ;
(PID.TID 0000.0001) PTRACERS_diffKh = /* Laplacian Diffusivity */
(PID.TID 0000.0001)                 0.000000000000000E+00
(PID.TID 0000.0001)     ;
(PID.TID 0000.0001) PTRACERS_diffK4 = /* Biharmonic Diffusivity */
(PID.TID 0000.0001)                 0.000000000000000E+00
(PID.TID 0000.0001)     ;
(PID.TID 0000.0001) PTRACERS_diffKrNr = /* Vertical Diffusivity */
(PID.TID 0000.0001)    35 @  1.000000000000000E-05              /* K =  1: 35 */
(PID.TID 0000.0001)     ;
(PID.TID 0000.0001) PTRACERS_useGMRedi = /* apply GM-Redi */
(PID.TID 0000.0001)                   F
(PID.TID 0000.0001)     ;
(PID.TID 0000.0001) PTRACERS_useDWNSLP = /* apply DOWN-SLOPE Flow */
(PID.TID 0000.0001)                   F
(PID.TID 0000.0001)     ;
(PID.TID 0000.0001) PTRACERS_useKPP = /* apply KPP scheme */
(PID.TID 0000.0001)                   F
(PID.TID 0000.0001)     ;
(PID.TID 0000.0001) PTRACERS_ref = /* Reference vertical profile */
(PID.TID 0000.0001)    35 @  0.000000000000000E+00              /* K =  1: 35 */
(PID.TID 0000.0001)     ;
(PID.TID 0000.0001) PTRACERS_EvPrRn =/* tracer conc. in Evap. & Rain */
(PID.TID 0000.0001)                 1.234567000000000E+05
(PID.TID 0000.0001)     ;
(PID.TID 0000.0001)  -----------------------------------
(PID.TID 0000.0001)  tracer number :   29
(PID.TID 0000.0001) PTRACERS_names = /* Tracer short name */
(PID.TID 0000.0001)               'c11'
(PID.TID 0000.0001)     ;
(PID.TID 0000.0001) PTRACERS_long_names = /* Tracer long name */
(PID.TID 0000.0001)               ''
(PID.TID 0000.0001)     ;
(PID.TID 0000.0001) PTRACERS_ioLabel = /* tracer IO Label */
(PID.TID 0000.0001)               '29'
(PID.TID 0000.0001)     ;
(PID.TID 0000.0001) PTRACERS_advScheme = /* Advection Scheme */
(PID.TID 0000.0001)                      33
(PID.TID 0000.0001)     ;
(PID.TID 0000.0001) PTRACERS_SOM_Advection = /* tracer uses SOM advection scheme */
(PID.TID 0000.0001)                   F
(PID.TID 0000.0001)     ;
(PID.TID 0000.0001) PTRACERS_ImplVertAdv = /* implicit vert. advection flag */
(PID.TID 0000.0001)                   F
(PID.TID 0000.0001)     ;
(PID.TID 0000.0001) PTRACERS_diffKh = /* Laplacian Diffusivity */
(PID.TID 0000.0001)                 0.000000000000000E+00
(PID.TID 0000.0001)     ;
(PID.TID 0000.0001) PTRACERS_diffK4 = /* Biharmonic Diffusivity */
(PID.TID 0000.0001)                 0.000000000000000E+00
(PID.TID 0000.0001)     ;
(PID.TID 0000.0001) PTRACERS_diffKrNr = /* Vertical Diffusivity */
(PID.TID 0000.0001)    35 @  1.000000000000000E-05              /* K =  1: 35 */
(PID.TID 0000.0001)     ;
(PID.TID 0000.0001) PTRACERS_useGMRedi = /* apply GM-Redi */
(PID.TID 0000.0001)                   F
(PID.TID 0000.0001)     ;
(PID.TID 0000.0001) PTRACERS_useDWNSLP = /* apply DOWN-SLOPE Flow */
(PID.TID 0000.0001)                   F
(PID.TID 0000.0001)     ;
(PID.TID 0000.0001) PTRACERS_useKPP = /* apply KPP scheme */
(PID.TID 0000.0001)                   F
(PID.TID 0000.0001)     ;
(PID.TID 0000.0001) PTRACERS_ref = /* Reference vertical profile */
(PID.TID 0000.0001)    35 @  0.000000000000000E+00              /* K =  1: 35 */
(PID.TID 0000.0001)     ;
(PID.TID 0000.0001) PTRACERS_EvPrRn =/* tracer conc. in Evap. & Rain */
(PID.TID 0000.0001)                 1.234567000000000E+05
(PID.TID 0000.0001)     ;
(PID.TID 0000.0001)  -----------------------------------
(PID.TID 0000.0001)  tracer number :   30
(PID.TID 0000.0001) PTRACERS_names = /* Tracer short name */
(PID.TID 0000.0001)               'c12'
(PID.TID 0000.0001)     ;
(PID.TID 0000.0001) PTRACERS_long_names = /* Tracer long name */
(PID.TID 0000.0001)               ''
(PID.TID 0000.0001)     ;
(PID.TID 0000.0001) PTRACERS_ioLabel = /* tracer IO Label */
(PID.TID 0000.0001)               '30'
(PID.TID 0000.0001)     ;
(PID.TID 0000.0001) PTRACERS_advScheme = /* Advection Scheme */
(PID.TID 0000.0001)                      33
(PID.TID 0000.0001)     ;
(PID.TID 0000.0001) PTRACERS_SOM_Advection = /* tracer uses SOM advection scheme */
(PID.TID 0000.0001)                   F
(PID.TID 0000.0001)     ;
(PID.TID 0000.0001) PTRACERS_ImplVertAdv = /* implicit vert. advection flag */
(PID.TID 0000.0001)                   F
(PID.TID 0000.0001)     ;
(PID.TID 0000.0001) PTRACERS_diffKh = /* Laplacian Diffusivity */
(PID.TID 0000.0001)                 0.000000000000000E+00
(PID.TID 0000.0001)     ;
(PID.TID 0000.0001) PTRACERS_diffK4 = /* Biharmonic Diffusivity */
(PID.TID 0000.0001)                 0.000000000000000E+00
(PID.TID 0000.0001)     ;
(PID.TID 0000.0001) PTRACERS_diffKrNr = /* Vertical Diffusivity */
(PID.TID 0000.0001)    35 @  1.000000000000000E-05              /* K =  1: 35 */
(PID.TID 0000.0001)     ;
(PID.TID 0000.0001) PTRACERS_useGMRedi = /* apply GM-Redi */
(PID.TID 0000.0001)                   F
(PID.TID 0000.0001)     ;
(PID.TID 0000.0001) PTRACERS_useDWNSLP = /* apply DOWN-SLOPE Flow */
(PID.TID 0000.0001)                   F
(PID.TID 0000.0001)     ;
(PID.TID 0000.0001) PTRACERS_useKPP = /* apply KPP scheme */
(PID.TID 0000.0001)                   F
(PID.TID 0000.0001)     ;
(PID.TID 0000.0001) PTRACERS_ref = /* Reference vertical profile */
(PID.TID 0000.0001)    35 @  0.000000000000000E+00              /* K =  1: 35 */
(PID.TID 0000.0001)     ;
(PID.TID 0000.0001) PTRACERS_EvPrRn =/* tracer conc. in Evap. & Rain */
(PID.TID 0000.0001)                 1.234567000000000E+05
(PID.TID 0000.0001)     ;
(PID.TID 0000.0001)  -----------------------------------
(PID.TID 0000.0001)  tracer number :   31
(PID.TID 0000.0001) PTRACERS_names = /* Tracer short name */
(PID.TID 0000.0001)               'c13'
(PID.TID 0000.0001)     ;
(PID.TID 0000.0001) PTRACERS_long_names = /* Tracer long name */
(PID.TID 0000.0001)               ''
(PID.TID 0000.0001)     ;
(PID.TID 0000.0001) PTRACERS_ioLabel = /* tracer IO Label */
(PID.TID 0000.0001)               '31'
(PID.TID 0000.0001)     ;
(PID.TID 0000.0001) PTRACERS_advScheme = /* Advection Scheme */
(PID.TID 0000.0001)                      33
(PID.TID 0000.0001)     ;
(PID.TID 0000.0001) PTRACERS_SOM_Advection = /* tracer uses SOM advection scheme */
(PID.TID 0000.0001)                   F
(PID.TID 0000.0001)     ;
(PID.TID 0000.0001) PTRACERS_ImplVertAdv = /* implicit vert. advection flag */
(PID.TID 0000.0001)                   F
(PID.TID 0000.0001)     ;
(PID.TID 0000.0001) PTRACERS_diffKh = /* Laplacian Diffusivity */
(PID.TID 0000.0001)                 0.000000000000000E+00
(PID.TID 0000.0001)     ;
(PID.TID 0000.0001) PTRACERS_diffK4 = /* Biharmonic Diffusivity */
(PID.TID 0000.0001)                 0.000000000000000E+00
(PID.TID 0000.0001)     ;
(PID.TID 0000.0001) PTRACERS_diffKrNr = /* Vertical Diffusivity */
(PID.TID 0000.0001)    35 @  1.000000000000000E-05              /* K =  1: 35 */
(PID.TID 0000.0001)     ;
(PID.TID 0000.0001) PTRACERS_useGMRedi = /* apply GM-Redi */
(PID.TID 0000.0001)                   F
(PID.TID 0000.0001)     ;
(PID.TID 0000.0001) PTRACERS_useDWNSLP = /* apply DOWN-SLOPE Flow */
(PID.TID 0000.0001)                   F
(PID.TID 0000.0001)     ;
(PID.TID 0000.0001) PTRACERS_useKPP = /* apply KPP scheme */
(PID.TID 0000.0001)                   F
(PID.TID 0000.0001)     ;
(PID.TID 0000.0001) PTRACERS_ref = /* Reference vertical profile */
(PID.TID 0000.0001)    35 @  0.000000000000000E+00              /* K =  1: 35 */
(PID.TID 0000.0001)     ;
(PID.TID 0000.0001) PTRACERS_EvPrRn =/* tracer conc. in Evap. & Rain */
(PID.TID 0000.0001)                 1.234567000000000E+05
(PID.TID 0000.0001)     ;
(PID.TID 0000.0001)  -----------------------------------
(PID.TID 0000.0001)  tracer number :   32
(PID.TID 0000.0001) PTRACERS_names = /* Tracer short name */
(PID.TID 0000.0001)               'c14'
(PID.TID 0000.0001)     ;
(PID.TID 0000.0001) PTRACERS_long_names = /* Tracer long name */
(PID.TID 0000.0001)               ''
(PID.TID 0000.0001)     ;
(PID.TID 0000.0001) PTRACERS_ioLabel = /* tracer IO Label */
(PID.TID 0000.0001)               '32'
(PID.TID 0000.0001)     ;
(PID.TID 0000.0001) PTRACERS_advScheme = /* Advection Scheme */
(PID.TID 0000.0001)                      33
(PID.TID 0000.0001)     ;
(PID.TID 0000.0001) PTRACERS_SOM_Advection = /* tracer uses SOM advection scheme */
(PID.TID 0000.0001)                   F
(PID.TID 0000.0001)     ;
(PID.TID 0000.0001) PTRACERS_ImplVertAdv = /* implicit vert. advection flag */
(PID.TID 0000.0001)                   F
(PID.TID 0000.0001)     ;
(PID.TID 0000.0001) PTRACERS_diffKh = /* Laplacian Diffusivity */
(PID.TID 0000.0001)                 0.000000000000000E+00
(PID.TID 0000.0001)     ;
(PID.TID 0000.0001) PTRACERS_diffK4 = /* Biharmonic Diffusivity */
(PID.TID 0000.0001)                 0.000000000000000E+00
(PID.TID 0000.0001)     ;
(PID.TID 0000.0001) PTRACERS_diffKrNr = /* Vertical Diffusivity */
(PID.TID 0000.0001)    35 @  1.000000000000000E-05              /* K =  1: 35 */
(PID.TID 0000.0001)     ;
(PID.TID 0000.0001) PTRACERS_useGMRedi = /* apply GM-Redi */
(PID.TID 0000.0001)                   F
(PID.TID 0000.0001)     ;
(PID.TID 0000.0001) PTRACERS_useDWNSLP = /* apply DOWN-SLOPE Flow */
(PID.TID 0000.0001)                   F
(PID.TID 0000.0001)     ;
(PID.TID 0000.0001) PTRACERS_useKPP = /* apply KPP scheme */
(PID.TID 0000.0001)                   F
(PID.TID 0000.0001)     ;
(PID.TID 0000.0001) PTRACERS_ref = /* Reference vertical profile */
(PID.TID 0000.0001)    35 @  0.000000000000000E+00              /* K =  1: 35 */
(PID.TID 0000.0001)     ;
(PID.TID 0000.0001) PTRACERS_EvPrRn =/* tracer conc. in Evap. & Rain */
(PID.TID 0000.0001)                 1.234567000000000E+05
(PID.TID 0000.0001)     ;
(PID.TID 0000.0001)  -----------------------------------
(PID.TID 0000.0001)  tracer number :   33
(PID.TID 0000.0001) PTRACERS_names = /* Tracer short name */
(PID.TID 0000.0001)               'c15'
(PID.TID 0000.0001)     ;
(PID.TID 0000.0001) PTRACERS_long_names = /* Tracer long name */
(PID.TID 0000.0001)               ''
(PID.TID 0000.0001)     ;
(PID.TID 0000.0001) PTRACERS_ioLabel = /* tracer IO Label */
(PID.TID 0000.0001)               '33'
(PID.TID 0000.0001)     ;
(PID.TID 0000.0001) PTRACERS_advScheme = /* Advection Scheme */
(PID.TID 0000.0001)                      33
(PID.TID 0000.0001)     ;
(PID.TID 0000.0001) PTRACERS_SOM_Advection = /* tracer uses SOM advection scheme */
(PID.TID 0000.0001)                   F
(PID.TID 0000.0001)     ;
(PID.TID 0000.0001) PTRACERS_ImplVertAdv = /* implicit vert. advection flag */
(PID.TID 0000.0001)                   F
(PID.TID 0000.0001)     ;
(PID.TID 0000.0001) PTRACERS_diffKh = /* Laplacian Diffusivity */
(PID.TID 0000.0001)                 0.000000000000000E+00
(PID.TID 0000.0001)     ;
(PID.TID 0000.0001) PTRACERS_diffK4 = /* Biharmonic Diffusivity */
(PID.TID 0000.0001)                 0.000000000000000E+00
(PID.TID 0000.0001)     ;
(PID.TID 0000.0001) PTRACERS_diffKrNr = /* Vertical Diffusivity */
(PID.TID 0000.0001)    35 @  1.000000000000000E-05              /* K =  1: 35 */
(PID.TID 0000.0001)     ;
(PID.TID 0000.0001) PTRACERS_useGMRedi = /* apply GM-Redi */
(PID.TID 0000.0001)                   F
(PID.TID 0000.0001)     ;
(PID.TID 0000.0001) PTRACERS_useDWNSLP = /* apply DOWN-SLOPE Flow */
(PID.TID 0000.0001)                   F
(PID.TID 0000.0001)     ;
(PID.TID 0000.0001) PTRACERS_useKPP = /* apply KPP scheme */
(PID.TID 0000.0001)                   F
(PID.TID 0000.0001)     ;
(PID.TID 0000.0001) PTRACERS_ref = /* Reference vertical profile */
(PID.TID 0000.0001)    35 @  0.000000000000000E+00              /* K =  1: 35 */
(PID.TID 0000.0001)     ;
(PID.TID 0000.0001) PTRACERS_EvPrRn =/* tracer conc. in Evap. & Rain */
(PID.TID 0000.0001)                 1.234567000000000E+05
(PID.TID 0000.0001)     ;
(PID.TID 0000.0001)  -----------------------------------
(PID.TID 0000.0001)  tracer number :   34
(PID.TID 0000.0001) PTRACERS_names = /* Tracer short name */
(PID.TID 0000.0001)               'c16'
(PID.TID 0000.0001)     ;
(PID.TID 0000.0001) PTRACERS_long_names = /* Tracer long name */
(PID.TID 0000.0001)               ''
(PID.TID 0000.0001)     ;
(PID.TID 0000.0001) PTRACERS_ioLabel = /* tracer IO Label */
(PID.TID 0000.0001)               '34'
(PID.TID 0000.0001)     ;
(PID.TID 0000.0001) PTRACERS_advScheme = /* Advection Scheme */
(PID.TID 0000.0001)                      33
(PID.TID 0000.0001)     ;
(PID.TID 0000.0001) PTRACERS_SOM_Advection = /* tracer uses SOM advection scheme */
(PID.TID 0000.0001)                   F
(PID.TID 0000.0001)     ;
(PID.TID 0000.0001) PTRACERS_ImplVertAdv = /* implicit vert. advection flag */
(PID.TID 0000.0001)                   F
(PID.TID 0000.0001)     ;
(PID.TID 0000.0001) PTRACERS_diffKh = /* Laplacian Diffusivity */
(PID.TID 0000.0001)                 0.000000000000000E+00
(PID.TID 0000.0001)     ;
(PID.TID 0000.0001) PTRACERS_diffK4 = /* Biharmonic Diffusivity */
(PID.TID 0000.0001)                 0.000000000000000E+00
(PID.TID 0000.0001)     ;
(PID.TID 0000.0001) PTRACERS_diffKrNr = /* Vertical Diffusivity */
(PID.TID 0000.0001)    35 @  1.000000000000000E-05              /* K =  1: 35 */
(PID.TID 0000.0001)     ;
(PID.TID 0000.0001) PTRACERS_useGMRedi = /* apply GM-Redi */
(PID.TID 0000.0001)                   F
(PID.TID 0000.0001)     ;
(PID.TID 0000.0001) PTRACERS_useDWNSLP = /* apply DOWN-SLOPE Flow */
(PID.TID 0000.0001)                   F
(PID.TID 0000.0001)     ;
(PID.TID 0000.0001) PTRACERS_useKPP = /* apply KPP scheme */
(PID.TID 0000.0001)                   F
(PID.TID 0000.0001)     ;
(PID.TID 0000.0001) PTRACERS_ref = /* Reference vertical profile */
(PID.TID 0000.0001)    35 @  0.000000000000000E+00              /* K =  1: 35 */
(PID.TID 0000.0001)     ;
(PID.TID 0000.0001) PTRACERS_EvPrRn =/* tracer conc. in Evap. & Rain */
(PID.TID 0000.0001)                 1.234567000000000E+05
(PID.TID 0000.0001)     ;
(PID.TID 0000.0001)  -----------------------------------
(PID.TID 0000.0001)  tracer number :   35
(PID.TID 0000.0001) PTRACERS_names = /* Tracer short name */
(PID.TID 0000.0001)               'c17'
(PID.TID 0000.0001)     ;
(PID.TID 0000.0001) PTRACERS_long_names = /* Tracer long name */
(PID.TID 0000.0001)               ''
(PID.TID 0000.0001)     ;
(PID.TID 0000.0001) PTRACERS_ioLabel = /* tracer IO Label */
(PID.TID 0000.0001)               '35'
(PID.TID 0000.0001)     ;
(PID.TID 0000.0001) PTRACERS_advScheme = /* Advection Scheme */
(PID.TID 0000.0001)                      33
(PID.TID 0000.0001)     ;
(PID.TID 0000.0001) PTRACERS_SOM_Advection = /* tracer uses SOM advection scheme */
(PID.TID 0000.0001)                   F
(PID.TID 0000.0001)     ;
(PID.TID 0000.0001) PTRACERS_ImplVertAdv = /* implicit vert. advection flag */
(PID.TID 0000.0001)                   F
(PID.TID 0000.0001)     ;
(PID.TID 0000.0001) PTRACERS_diffKh = /* Laplacian Diffusivity */
(PID.TID 0000.0001)                 0.000000000000000E+00
(PID.TID 0000.0001)     ;
(PID.TID 0000.0001) PTRACERS_diffK4 = /* Biharmonic Diffusivity */
(PID.TID 0000.0001)                 0.000000000000000E+00
(PID.TID 0000.0001)     ;
(PID.TID 0000.0001) PTRACERS_diffKrNr = /* Vertical Diffusivity */
(PID.TID 0000.0001)    35 @  1.000000000000000E-05              /* K =  1: 35 */
(PID.TID 0000.0001)     ;
(PID.TID 0000.0001) PTRACERS_useGMRedi = /* apply GM-Redi */
(PID.TID 0000.0001)                   F
(PID.TID 0000.0001)     ;
(PID.TID 0000.0001) PTRACERS_useDWNSLP = /* apply DOWN-SLOPE Flow */
(PID.TID 0000.0001)                   F
(PID.TID 0000.0001)     ;
(PID.TID 0000.0001) PTRACERS_useKPP = /* apply KPP scheme */
(PID.TID 0000.0001)                   F
(PID.TID 0000.0001)     ;
(PID.TID 0000.0001) PTRACERS_ref = /* Reference vertical profile */
(PID.TID 0000.0001)    35 @  0.000000000000000E+00              /* K =  1: 35 */
(PID.TID 0000.0001)     ;
(PID.TID 0000.0001) PTRACERS_EvPrRn =/* tracer conc. in Evap. & Rain */
(PID.TID 0000.0001)                 1.234567000000000E+05
(PID.TID 0000.0001)     ;
(PID.TID 0000.0001)  -----------------------------------
(PID.TID 0000.0001)  tracer number :   36
(PID.TID 0000.0001) PTRACERS_names = /* Tracer short name */
(PID.TID 0000.0001)               'c18'
(PID.TID 0000.0001)     ;
(PID.TID 0000.0001) PTRACERS_long_names = /* Tracer long name */
(PID.TID 0000.0001)               ''
(PID.TID 0000.0001)     ;
(PID.TID 0000.0001) PTRACERS_ioLabel = /* tracer IO Label */
(PID.TID 0000.0001)               '36'
(PID.TID 0000.0001)     ;
(PID.TID 0000.0001) PTRACERS_advScheme = /* Advection Scheme */
(PID.TID 0000.0001)                      33
(PID.TID 0000.0001)     ;
(PID.TID 0000.0001) PTRACERS_SOM_Advection = /* tracer uses SOM advection scheme */
(PID.TID 0000.0001)                   F
(PID.TID 0000.0001)     ;
(PID.TID 0000.0001) PTRACERS_ImplVertAdv = /* implicit vert. advection flag */
(PID.TID 0000.0001)                   F
(PID.TID 0000.0001)     ;
(PID.TID 0000.0001) PTRACERS_diffKh = /* Laplacian Diffusivity */
(PID.TID 0000.0001)                 0.000000000000000E+00
(PID.TID 0000.0001)     ;
(PID.TID 0000.0001) PTRACERS_diffK4 = /* Biharmonic Diffusivity */
(PID.TID 0000.0001)                 0.000000000000000E+00
(PID.TID 0000.0001)     ;
(PID.TID 0000.0001) PTRACERS_diffKrNr = /* Vertical Diffusivity */
(PID.TID 0000.0001)    35 @  1.000000000000000E-05              /* K =  1: 35 */
(PID.TID 0000.0001)     ;
(PID.TID 0000.0001) PTRACERS_useGMRedi = /* apply GM-Redi */
(PID.TID 0000.0001)                   F
(PID.TID 0000.0001)     ;
(PID.TID 0000.0001) PTRACERS_useDWNSLP = /* apply DOWN-SLOPE Flow */
(PID.TID 0000.0001)                   F
(PID.TID 0000.0001)     ;
(PID.TID 0000.0001) PTRACERS_useKPP = /* apply KPP scheme */
(PID.TID 0000.0001)                   F
(PID.TID 0000.0001)     ;
(PID.TID 0000.0001) PTRACERS_ref = /* Reference vertical profile */
(PID.TID 0000.0001)    35 @  0.000000000000000E+00              /* K =  1: 35 */
(PID.TID 0000.0001)     ;
(PID.TID 0000.0001) PTRACERS_EvPrRn =/* tracer conc. in Evap. & Rain */
(PID.TID 0000.0001)                 1.234567000000000E+05
(PID.TID 0000.0001)     ;
(PID.TID 0000.0001)  -----------------------------------
(PID.TID 0000.0001)  tracer number :   37
(PID.TID 0000.0001) PTRACERS_names = /* Tracer short name */
(PID.TID 0000.0001)               'c19'
(PID.TID 0000.0001)     ;
(PID.TID 0000.0001) PTRACERS_long_names = /* Tracer long name */
(PID.TID 0000.0001)               ''
(PID.TID 0000.0001)     ;
(PID.TID 0000.0001) PTRACERS_ioLabel = /* tracer IO Label */
(PID.TID 0000.0001)               '37'
(PID.TID 0000.0001)     ;
(PID.TID 0000.0001) PTRACERS_advScheme = /* Advection Scheme */
(PID.TID 0000.0001)                      33
(PID.TID 0000.0001)     ;
(PID.TID 0000.0001) PTRACERS_SOM_Advection = /* tracer uses SOM advection scheme */
(PID.TID 0000.0001)                   F
(PID.TID 0000.0001)     ;
(PID.TID 0000.0001) PTRACERS_ImplVertAdv = /* implicit vert. advection flag */
(PID.TID 0000.0001)                   F
(PID.TID 0000.0001)     ;
(PID.TID 0000.0001) PTRACERS_diffKh = /* Laplacian Diffusivity */
(PID.TID 0000.0001)                 0.000000000000000E+00
(PID.TID 0000.0001)     ;
(PID.TID 0000.0001) PTRACERS_diffK4 = /* Biharmonic Diffusivity */
(PID.TID 0000.0001)                 0.000000000000000E+00
(PID.TID 0000.0001)     ;
(PID.TID 0000.0001) PTRACERS_diffKrNr = /* Vertical Diffusivity */
(PID.TID 0000.0001)    35 @  1.000000000000000E-05              /* K =  1: 35 */
(PID.TID 0000.0001)     ;
(PID.TID 0000.0001) PTRACERS_useGMRedi = /* apply GM-Redi */
(PID.TID 0000.0001)                   F
(PID.TID 0000.0001)     ;
(PID.TID 0000.0001) PTRACERS_useDWNSLP = /* apply DOWN-SLOPE Flow */
(PID.TID 0000.0001)                   F
(PID.TID 0000.0001)     ;
(PID.TID 0000.0001) PTRACERS_useKPP = /* apply KPP scheme */
(PID.TID 0000.0001)                   F
(PID.TID 0000.0001)     ;
(PID.TID 0000.0001) PTRACERS_ref = /* Reference vertical profile */
(PID.TID 0000.0001)    35 @  0.000000000000000E+00              /* K =  1: 35 */
(PID.TID 0000.0001)     ;
(PID.TID 0000.0001) PTRACERS_EvPrRn =/* tracer conc. in Evap. & Rain */
(PID.TID 0000.0001)                 1.234567000000000E+05
(PID.TID 0000.0001)     ;
(PID.TID 0000.0001)  -----------------------------------
(PID.TID 0000.0001)  tracer number :   38
(PID.TID 0000.0001) PTRACERS_names = /* Tracer short name */
(PID.TID 0000.0001)               'c20'
(PID.TID 0000.0001)     ;
(PID.TID 0000.0001) PTRACERS_long_names = /* Tracer long name */
(PID.TID 0000.0001)               ''
(PID.TID 0000.0001)     ;
(PID.TID 0000.0001) PTRACERS_ioLabel = /* tracer IO Label */
(PID.TID 0000.0001)               '38'
(PID.TID 0000.0001)     ;
(PID.TID 0000.0001) PTRACERS_advScheme = /* Advection Scheme */
(PID.TID 0000.0001)                      33
(PID.TID 0000.0001)     ;
(PID.TID 0000.0001) PTRACERS_SOM_Advection = /* tracer uses SOM advection scheme */
(PID.TID 0000.0001)                   F
(PID.TID 0000.0001)     ;
(PID.TID 0000.0001) PTRACERS_ImplVertAdv = /* implicit vert. advection flag */
(PID.TID 0000.0001)                   F
(PID.TID 0000.0001)     ;
(PID.TID 0000.0001) PTRACERS_diffKh = /* Laplacian Diffusivity */
(PID.TID 0000.0001)                 0.000000000000000E+00
(PID.TID 0000.0001)     ;
(PID.TID 0000.0001) PTRACERS_diffK4 = /* Biharmonic Diffusivity */
(PID.TID 0000.0001)                 0.000000000000000E+00
(PID.TID 0000.0001)     ;
(PID.TID 0000.0001) PTRACERS_diffKrNr = /* Vertical Diffusivity */
(PID.TID 0000.0001)    35 @  1.000000000000000E-05              /* K =  1: 35 */
(PID.TID 0000.0001)     ;
(PID.TID 0000.0001) PTRACERS_useGMRedi = /* apply GM-Redi */
(PID.TID 0000.0001)                   F
(PID.TID 0000.0001)     ;
(PID.TID 0000.0001) PTRACERS_useDWNSLP = /* apply DOWN-SLOPE Flow */
(PID.TID 0000.0001)                   F
(PID.TID 0000.0001)     ;
(PID.TID 0000.0001) PTRACERS_useKPP = /* apply KPP scheme */
(PID.TID 0000.0001)                   F
(PID.TID 0000.0001)     ;
(PID.TID 0000.0001) PTRACERS_ref = /* Reference vertical profile */
(PID.TID 0000.0001)    35 @  0.000000000000000E+00              /* K =  1: 35 */
(PID.TID 0000.0001)     ;
(PID.TID 0000.0001) PTRACERS_EvPrRn =/* tracer conc. in Evap. & Rain */
(PID.TID 0000.0001)                 1.234567000000000E+05
(PID.TID 0000.0001)     ;
(PID.TID 0000.0001)  -----------------------------------
(PID.TID 0000.0001)  tracer number :   39
(PID.TID 0000.0001) PTRACERS_names = /* Tracer short name */
(PID.TID 0000.0001)               'c21'
(PID.TID 0000.0001)     ;
(PID.TID 0000.0001) PTRACERS_long_names = /* Tracer long name */
(PID.TID 0000.0001)               ''
(PID.TID 0000.0001)     ;
(PID.TID 0000.0001) PTRACERS_ioLabel = /* tracer IO Label */
(PID.TID 0000.0001)               '39'
(PID.TID 0000.0001)     ;
(PID.TID 0000.0001) PTRACERS_advScheme = /* Advection Scheme */
(PID.TID 0000.0001)                      33
(PID.TID 0000.0001)     ;
(PID.TID 0000.0001) PTRACERS_SOM_Advection = /* tracer uses SOM advection scheme */
(PID.TID 0000.0001)                   F
(PID.TID 0000.0001)     ;
(PID.TID 0000.0001) PTRACERS_ImplVertAdv = /* implicit vert. advection flag */
(PID.TID 0000.0001)                   F
(PID.TID 0000.0001)     ;
(PID.TID 0000.0001) PTRACERS_diffKh = /* Laplacian Diffusivity */
(PID.TID 0000.0001)                 0.000000000000000E+00
(PID.TID 0000.0001)     ;
(PID.TID 0000.0001) PTRACERS_diffK4 = /* Biharmonic Diffusivity */
(PID.TID 0000.0001)                 0.000000000000000E+00
(PID.TID 0000.0001)     ;
(PID.TID 0000.0001) PTRACERS_diffKrNr = /* Vertical Diffusivity */
(PID.TID 0000.0001)    35 @  1.000000000000000E-05              /* K =  1: 35 */
(PID.TID 0000.0001)     ;
(PID.TID 0000.0001) PTRACERS_useGMRedi = /* apply GM-Redi */
(PID.TID 0000.0001)                   F
(PID.TID 0000.0001)     ;
(PID.TID 0000.0001) PTRACERS_useDWNSLP = /* apply DOWN-SLOPE Flow */
(PID.TID 0000.0001)                   F
(PID.TID 0000.0001)     ;
(PID.TID 0000.0001) PTRACERS_useKPP = /* apply KPP scheme */
(PID.TID 0000.0001)                   F
(PID.TID 0000.0001)     ;
(PID.TID 0000.0001) PTRACERS_ref = /* Reference vertical profile */
(PID.TID 0000.0001)    35 @  0.000000000000000E+00              /* K =  1: 35 */
(PID.TID 0000.0001)     ;
(PID.TID 0000.0001) PTRACERS_EvPrRn =/* tracer conc. in Evap. & Rain */
(PID.TID 0000.0001)                 1.234567000000000E+05
(PID.TID 0000.0001)     ;
(PID.TID 0000.0001)  -----------------------------------
(PID.TID 0000.0001)  tracer number :   40
(PID.TID 0000.0001) PTRACERS_names = /* Tracer short name */
(PID.TID 0000.0001)               'c22'
(PID.TID 0000.0001)     ;
(PID.TID 0000.0001) PTRACERS_long_names = /* Tracer long name */
(PID.TID 0000.0001)               ''
(PID.TID 0000.0001)     ;
(PID.TID 0000.0001) PTRACERS_ioLabel = /* tracer IO Label */
(PID.TID 0000.0001)               '40'
(PID.TID 0000.0001)     ;
(PID.TID 0000.0001) PTRACERS_advScheme = /* Advection Scheme */
(PID.TID 0000.0001)                      33
(PID.TID 0000.0001)     ;
(PID.TID 0000.0001) PTRACERS_SOM_Advection = /* tracer uses SOM advection scheme */
(PID.TID 0000.0001)                   F
(PID.TID 0000.0001)     ;
(PID.TID 0000.0001) PTRACERS_ImplVertAdv = /* implicit vert. advection flag */
(PID.TID 0000.0001)                   F
(PID.TID 0000.0001)     ;
(PID.TID 0000.0001) PTRACERS_diffKh = /* Laplacian Diffusivity */
(PID.TID 0000.0001)                 0.000000000000000E+00
(PID.TID 0000.0001)     ;
(PID.TID 0000.0001) PTRACERS_diffK4 = /* Biharmonic Diffusivity */
(PID.TID 0000.0001)                 0.000000000000000E+00
(PID.TID 0000.0001)     ;
(PID.TID 0000.0001) PTRACERS_diffKrNr = /* Vertical Diffusivity */
(PID.TID 0000.0001)    35 @  1.000000000000000E-05              /* K =  1: 35 */
(PID.TID 0000.0001)     ;
(PID.TID 0000.0001) PTRACERS_useGMRedi = /* apply GM-Redi */
(PID.TID 0000.0001)                   F
(PID.TID 0000.0001)     ;
(PID.TID 0000.0001) PTRACERS_useDWNSLP = /* apply DOWN-SLOPE Flow */
(PID.TID 0000.0001)                   F
(PID.TID 0000.0001)     ;
(PID.TID 0000.0001) PTRACERS_useKPP = /* apply KPP scheme */
(PID.TID 0000.0001)                   F
(PID.TID 0000.0001)     ;
(PID.TID 0000.0001) PTRACERS_ref = /* Reference vertical profile */
(PID.TID 0000.0001)    35 @  0.000000000000000E+00              /* K =  1: 35 */
(PID.TID 0000.0001)     ;
(PID.TID 0000.0001) PTRACERS_EvPrRn =/* tracer conc. in Evap. & Rain */
(PID.TID 0000.0001)                 1.234567000000000E+05
(PID.TID 0000.0001)     ;
(PID.TID 0000.0001)  -----------------------------------
(PID.TID 0000.0001)  tracer number :   41
(PID.TID 0000.0001) PTRACERS_names = /* Tracer short name */
(PID.TID 0000.0001)               'c23'
(PID.TID 0000.0001)     ;
(PID.TID 0000.0001) PTRACERS_long_names = /* Tracer long name */
(PID.TID 0000.0001)               ''
(PID.TID 0000.0001)     ;
(PID.TID 0000.0001) PTRACERS_ioLabel = /* tracer IO Label */
(PID.TID 0000.0001)               '41'
(PID.TID 0000.0001)     ;
(PID.TID 0000.0001) PTRACERS_advScheme = /* Advection Scheme */
(PID.TID 0000.0001)                      33
(PID.TID 0000.0001)     ;
(PID.TID 0000.0001) PTRACERS_SOM_Advection = /* tracer uses SOM advection scheme */
(PID.TID 0000.0001)                   F
(PID.TID 0000.0001)     ;
(PID.TID 0000.0001) PTRACERS_ImplVertAdv = /* implicit vert. advection flag */
(PID.TID 0000.0001)                   F
(PID.TID 0000.0001)     ;
(PID.TID 0000.0001) PTRACERS_diffKh = /* Laplacian Diffusivity */
(PID.TID 0000.0001)                 0.000000000000000E+00
(PID.TID 0000.0001)     ;
(PID.TID 0000.0001) PTRACERS_diffK4 = /* Biharmonic Diffusivity */
(PID.TID 0000.0001)                 0.000000000000000E+00
(PID.TID 0000.0001)     ;
(PID.TID 0000.0001) PTRACERS_diffKrNr = /* Vertical Diffusivity */
(PID.TID 0000.0001)    35 @  1.000000000000000E-05              /* K =  1: 35 */
(PID.TID 0000.0001)     ;
(PID.TID 0000.0001) PTRACERS_useGMRedi = /* apply GM-Redi */
(PID.TID 0000.0001)                   F
(PID.TID 0000.0001)     ;
(PID.TID 0000.0001) PTRACERS_useDWNSLP = /* apply DOWN-SLOPE Flow */
(PID.TID 0000.0001)                   F
(PID.TID 0000.0001)     ;
(PID.TID 0000.0001) PTRACERS_useKPP = /* apply KPP scheme */
(PID.TID 0000.0001)                   F
(PID.TID 0000.0001)     ;
(PID.TID 0000.0001) PTRACERS_ref = /* Reference vertical profile */
(PID.TID 0000.0001)    35 @  0.000000000000000E+00              /* K =  1: 35 */
(PID.TID 0000.0001)     ;
(PID.TID 0000.0001) PTRACERS_EvPrRn =/* tracer conc. in Evap. & Rain */
(PID.TID 0000.0001)                 1.234567000000000E+05
(PID.TID 0000.0001)     ;
(PID.TID 0000.0001)  -----------------------------------
(PID.TID 0000.0001)  tracer number :   42
(PID.TID 0000.0001) PTRACERS_names = /* Tracer short name */
(PID.TID 0000.0001)               'c24'
(PID.TID 0000.0001)     ;
(PID.TID 0000.0001) PTRACERS_long_names = /* Tracer long name */
(PID.TID 0000.0001)               ''
(PID.TID 0000.0001)     ;
(PID.TID 0000.0001) PTRACERS_ioLabel = /* tracer IO Label */
(PID.TID 0000.0001)               '42'
(PID.TID 0000.0001)     ;
(PID.TID 0000.0001) PTRACERS_advScheme = /* Advection Scheme */
(PID.TID 0000.0001)                      33
(PID.TID 0000.0001)     ;
(PID.TID 0000.0001) PTRACERS_SOM_Advection = /* tracer uses SOM advection scheme */
(PID.TID 0000.0001)                   F
(PID.TID 0000.0001)     ;
(PID.TID 0000.0001) PTRACERS_ImplVertAdv = /* implicit vert. advection flag */
(PID.TID 0000.0001)                   F
(PID.TID 0000.0001)     ;
(PID.TID 0000.0001) PTRACERS_diffKh = /* Laplacian Diffusivity */
(PID.TID 0000.0001)                 0.000000000000000E+00
(PID.TID 0000.0001)     ;
(PID.TID 0000.0001) PTRACERS_diffK4 = /* Biharmonic Diffusivity */
(PID.TID 0000.0001)                 0.000000000000000E+00
(PID.TID 0000.0001)     ;
(PID.TID 0000.0001) PTRACERS_diffKrNr = /* Vertical Diffusivity */
(PID.TID 0000.0001)    35 @  1.000000000000000E-05              /* K =  1: 35 */
(PID.TID 0000.0001)     ;
(PID.TID 0000.0001) PTRACERS_useGMRedi = /* apply GM-Redi */
(PID.TID 0000.0001)                   F
(PID.TID 0000.0001)     ;
(PID.TID 0000.0001) PTRACERS_useDWNSLP = /* apply DOWN-SLOPE Flow */
(PID.TID 0000.0001)                   F
(PID.TID 0000.0001)     ;
(PID.TID 0000.0001) PTRACERS_useKPP = /* apply KPP scheme */
(PID.TID 0000.0001)                   F
(PID.TID 0000.0001)     ;
(PID.TID 0000.0001) PTRACERS_ref = /* Reference vertical profile */
(PID.TID 0000.0001)    35 @  0.000000000000000E+00              /* K =  1: 35 */
(PID.TID 0000.0001)     ;
(PID.TID 0000.0001) PTRACERS_EvPrRn =/* tracer conc. in Evap. & Rain */
(PID.TID 0000.0001)                 1.234567000000000E+05
(PID.TID 0000.0001)     ;
(PID.TID 0000.0001)  -----------------------------------
(PID.TID 0000.0001)  tracer number :   43
(PID.TID 0000.0001) PTRACERS_names = /* Tracer short name */
(PID.TID 0000.0001)               'c25'
(PID.TID 0000.0001)     ;
(PID.TID 0000.0001) PTRACERS_long_names = /* Tracer long name */
(PID.TID 0000.0001)               ''
(PID.TID 0000.0001)     ;
(PID.TID 0000.0001) PTRACERS_ioLabel = /* tracer IO Label */
(PID.TID 0000.0001)               '43'
(PID.TID 0000.0001)     ;
(PID.TID 0000.0001) PTRACERS_advScheme = /* Advection Scheme */
(PID.TID 0000.0001)                      33
(PID.TID 0000.0001)     ;
(PID.TID 0000.0001) PTRACERS_SOM_Advection = /* tracer uses SOM advection scheme */
(PID.TID 0000.0001)                   F
(PID.TID 0000.0001)     ;
(PID.TID 0000.0001) PTRACERS_ImplVertAdv = /* implicit vert. advection flag */
(PID.TID 0000.0001)                   F
(PID.TID 0000.0001)     ;
(PID.TID 0000.0001) PTRACERS_diffKh = /* Laplacian Diffusivity */
(PID.TID 0000.0001)                 0.000000000000000E+00
(PID.TID 0000.0001)     ;
(PID.TID 0000.0001) PTRACERS_diffK4 = /* Biharmonic Diffusivity */
(PID.TID 0000.0001)                 0.000000000000000E+00
(PID.TID 0000.0001)     ;
(PID.TID 0000.0001) PTRACERS_diffKrNr = /* Vertical Diffusivity */
(PID.TID 0000.0001)    35 @  1.000000000000000E-05              /* K =  1: 35 */
(PID.TID 0000.0001)     ;
(PID.TID 0000.0001) PTRACERS_useGMRedi = /* apply GM-Redi */
(PID.TID 0000.0001)                   F
(PID.TID 0000.0001)     ;
(PID.TID 0000.0001) PTRACERS_useDWNSLP = /* apply DOWN-SLOPE Flow */
(PID.TID 0000.0001)                   F
(PID.TID 0000.0001)     ;
(PID.TID 0000.0001) PTRACERS_useKPP = /* apply KPP scheme */
(PID.TID 0000.0001)                   F
(PID.TID 0000.0001)     ;
(PID.TID 0000.0001) PTRACERS_ref = /* Reference vertical profile */
(PID.TID 0000.0001)    35 @  0.000000000000000E+00              /* K =  1: 35 */
(PID.TID 0000.0001)     ;
(PID.TID 0000.0001) PTRACERS_EvPrRn =/* tracer conc. in Evap. & Rain */
(PID.TID 0000.0001)                 1.234567000000000E+05
(PID.TID 0000.0001)     ;
(PID.TID 0000.0001)  -----------------------------------
(PID.TID 0000.0001)  tracer number :   44
(PID.TID 0000.0001) PTRACERS_names = /* Tracer short name */
(PID.TID 0000.0001)               'c26'
(PID.TID 0000.0001)     ;
(PID.TID 0000.0001) PTRACERS_long_names = /* Tracer long name */
(PID.TID 0000.0001)               ''
(PID.TID 0000.0001)     ;
(PID.TID 0000.0001) PTRACERS_ioLabel = /* tracer IO Label */
(PID.TID 0000.0001)               '44'
(PID.TID 0000.0001)     ;
(PID.TID 0000.0001) PTRACERS_advScheme = /* Advection Scheme */
(PID.TID 0000.0001)                      33
(PID.TID 0000.0001)     ;
(PID.TID 0000.0001) PTRACERS_SOM_Advection = /* tracer uses SOM advection scheme */
(PID.TID 0000.0001)                   F
(PID.TID 0000.0001)     ;
(PID.TID 0000.0001) PTRACERS_ImplVertAdv = /* implicit vert. advection flag */
(PID.TID 0000.0001)                   F
(PID.TID 0000.0001)     ;
(PID.TID 0000.0001) PTRACERS_diffKh = /* Laplacian Diffusivity */
(PID.TID 0000.0001)                 0.000000000000000E+00
(PID.TID 0000.0001)     ;
(PID.TID 0000.0001) PTRACERS_diffK4 = /* Biharmonic Diffusivity */
(PID.TID 0000.0001)                 0.000000000000000E+00
(PID.TID 0000.0001)     ;
(PID.TID 0000.0001) PTRACERS_diffKrNr = /* Vertical Diffusivity */
(PID.TID 0000.0001)    35 @  1.000000000000000E-05              /* K =  1: 35 */
(PID.TID 0000.0001)     ;
(PID.TID 0000.0001) PTRACERS_useGMRedi = /* apply GM-Redi */
(PID.TID 0000.0001)                   F
(PID.TID 0000.0001)     ;
(PID.TID 0000.0001) PTRACERS_useDWNSLP = /* apply DOWN-SLOPE Flow */
(PID.TID 0000.0001)                   F
(PID.TID 0000.0001)     ;
(PID.TID 0000.0001) PTRACERS_useKPP = /* apply KPP scheme */
(PID.TID 0000.0001)                   F
(PID.TID 0000.0001)     ;
(PID.TID 0000.0001) PTRACERS_ref = /* Reference vertical profile */
(PID.TID 0000.0001)    35 @  0.000000000000000E+00              /* K =  1: 35 */
(PID.TID 0000.0001)     ;
(PID.TID 0000.0001) PTRACERS_EvPrRn =/* tracer conc. in Evap. & Rain */
(PID.TID 0000.0001)                 1.234567000000000E+05
(PID.TID 0000.0001)     ;
(PID.TID 0000.0001)  -----------------------------------
(PID.TID 0000.0001)  tracer number :   45
(PID.TID 0000.0001) PTRACERS_names = /* Tracer short name */
(PID.TID 0000.0001)               'c27'
(PID.TID 0000.0001)     ;
(PID.TID 0000.0001) PTRACERS_long_names = /* Tracer long name */
(PID.TID 0000.0001)               ''
(PID.TID 0000.0001)     ;
(PID.TID 0000.0001) PTRACERS_ioLabel = /* tracer IO Label */
(PID.TID 0000.0001)               '45'
(PID.TID 0000.0001)     ;
(PID.TID 0000.0001) PTRACERS_advScheme = /* Advection Scheme */
(PID.TID 0000.0001)                      33
(PID.TID 0000.0001)     ;
(PID.TID 0000.0001) PTRACERS_SOM_Advection = /* tracer uses SOM advection scheme */
(PID.TID 0000.0001)                   F
(PID.TID 0000.0001)     ;
(PID.TID 0000.0001) PTRACERS_ImplVertAdv = /* implicit vert. advection flag */
(PID.TID 0000.0001)                   F
(PID.TID 0000.0001)     ;
(PID.TID 0000.0001) PTRACERS_diffKh = /* Laplacian Diffusivity */
(PID.TID 0000.0001)                 0.000000000000000E+00
(PID.TID 0000.0001)     ;
(PID.TID 0000.0001) PTRACERS_diffK4 = /* Biharmonic Diffusivity */
(PID.TID 0000.0001)                 0.000000000000000E+00
(PID.TID 0000.0001)     ;
(PID.TID 0000.0001) PTRACERS_diffKrNr = /* Vertical Diffusivity */
(PID.TID 0000.0001)    35 @  1.000000000000000E-05              /* K =  1: 35 */
(PID.TID 0000.0001)     ;
(PID.TID 0000.0001) PTRACERS_useGMRedi = /* apply GM-Redi */
(PID.TID 0000.0001)                   F
(PID.TID 0000.0001)     ;
(PID.TID 0000.0001) PTRACERS_useDWNSLP = /* apply DOWN-SLOPE Flow */
(PID.TID 0000.0001)                   F
(PID.TID 0000.0001)     ;
(PID.TID 0000.0001) PTRACERS_useKPP = /* apply KPP scheme */
(PID.TID 0000.0001)                   F
(PID.TID 0000.0001)     ;
(PID.TID 0000.0001) PTRACERS_ref = /* Reference vertical profile */
(PID.TID 0000.0001)    35 @  0.000000000000000E+00              /* K =  1: 35 */
(PID.TID 0000.0001)     ;
(PID.TID 0000.0001) PTRACERS_EvPrRn =/* tracer conc. in Evap. & Rain */
(PID.TID 0000.0001)                 1.234567000000000E+05
(PID.TID 0000.0001)     ;
(PID.TID 0000.0001)  -----------------------------------
(PID.TID 0000.0001)  tracer number :   46
(PID.TID 0000.0001) PTRACERS_names = /* Tracer short name */
(PID.TID 0000.0001)               'c28'
(PID.TID 0000.0001)     ;
(PID.TID 0000.0001) PTRACERS_long_names = /* Tracer long name */
(PID.TID 0000.0001)               ''
(PID.TID 0000.0001)     ;
(PID.TID 0000.0001) PTRACERS_ioLabel = /* tracer IO Label */
(PID.TID 0000.0001)               '46'
(PID.TID 0000.0001)     ;
(PID.TID 0000.0001) PTRACERS_advScheme = /* Advection Scheme */
(PID.TID 0000.0001)                      33
(PID.TID 0000.0001)     ;
(PID.TID 0000.0001) PTRACERS_SOM_Advection = /* tracer uses SOM advection scheme */
(PID.TID 0000.0001)                   F
(PID.TID 0000.0001)     ;
(PID.TID 0000.0001) PTRACERS_ImplVertAdv = /* implicit vert. advection flag */
(PID.TID 0000.0001)                   F
(PID.TID 0000.0001)     ;
(PID.TID 0000.0001) PTRACERS_diffKh = /* Laplacian Diffusivity */
(PID.TID 0000.0001)                 0.000000000000000E+00
(PID.TID 0000.0001)     ;
(PID.TID 0000.0001) PTRACERS_diffK4 = /* Biharmonic Diffusivity */
(PID.TID 0000.0001)                 0.000000000000000E+00
(PID.TID 0000.0001)     ;
(PID.TID 0000.0001) PTRACERS_diffKrNr = /* Vertical Diffusivity */
(PID.TID 0000.0001)    35 @  1.000000000000000E-05              /* K =  1: 35 */
(PID.TID 0000.0001)     ;
(PID.TID 0000.0001) PTRACERS_useGMRedi = /* apply GM-Redi */
(PID.TID 0000.0001)                   F
(PID.TID 0000.0001)     ;
(PID.TID 0000.0001) PTRACERS_useDWNSLP = /* apply DOWN-SLOPE Flow */
(PID.TID 0000.0001)                   F
(PID.TID 0000.0001)     ;
(PID.TID 0000.0001) PTRACERS_useKPP = /* apply KPP scheme */
(PID.TID 0000.0001)                   F
(PID.TID 0000.0001)     ;
(PID.TID 0000.0001) PTRACERS_ref = /* Reference vertical profile */
(PID.TID 0000.0001)    35 @  0.000000000000000E+00              /* K =  1: 35 */
(PID.TID 0000.0001)     ;
(PID.TID 0000.0001) PTRACERS_EvPrRn =/* tracer conc. in Evap. & Rain */
(PID.TID 0000.0001)                 1.234567000000000E+05
(PID.TID 0000.0001)     ;
(PID.TID 0000.0001)  -----------------------------------
(PID.TID 0000.0001)  tracer number :   47
(PID.TID 0000.0001) PTRACERS_names = /* Tracer short name */
(PID.TID 0000.0001)               'c29'
(PID.TID 0000.0001)     ;
(PID.TID 0000.0001) PTRACERS_long_names = /* Tracer long name */
(PID.TID 0000.0001)               ''
(PID.TID 0000.0001)     ;
(PID.TID 0000.0001) PTRACERS_ioLabel = /* tracer IO Label */
(PID.TID 0000.0001)               '47'
(PID.TID 0000.0001)     ;
(PID.TID 0000.0001) PTRACERS_advScheme = /* Advection Scheme */
(PID.TID 0000.0001)                      33
(PID.TID 0000.0001)     ;
(PID.TID 0000.0001) PTRACERS_SOM_Advection = /* tracer uses SOM advection scheme */
(PID.TID 0000.0001)                   F
(PID.TID 0000.0001)     ;
(PID.TID 0000.0001) PTRACERS_ImplVertAdv = /* implicit vert. advection flag */
(PID.TID 0000.0001)                   F
(PID.TID 0000.0001)     ;
(PID.TID 0000.0001) PTRACERS_diffKh = /* Laplacian Diffusivity */
(PID.TID 0000.0001)                 0.000000000000000E+00
(PID.TID 0000.0001)     ;
(PID.TID 0000.0001) PTRACERS_diffK4 = /* Biharmonic Diffusivity */
(PID.TID 0000.0001)                 0.000000000000000E+00
(PID.TID 0000.0001)     ;
(PID.TID 0000.0001) PTRACERS_diffKrNr = /* Vertical Diffusivity */
(PID.TID 0000.0001)    35 @  1.000000000000000E-05              /* K =  1: 35 */
(PID.TID 0000.0001)     ;
(PID.TID 0000.0001) PTRACERS_useGMRedi = /* apply GM-Redi */
(PID.TID 0000.0001)                   F
(PID.TID 0000.0001)     ;
(PID.TID 0000.0001) PTRACERS_useDWNSLP = /* apply DOWN-SLOPE Flow */
(PID.TID 0000.0001)                   F
(PID.TID 0000.0001)     ;
(PID.TID 0000.0001) PTRACERS_useKPP = /* apply KPP scheme */
(PID.TID 0000.0001)                   F
(PID.TID 0000.0001)     ;
(PID.TID 0000.0001) PTRACERS_ref = /* Reference vertical profile */
(PID.TID 0000.0001)    35 @  0.000000000000000E+00              /* K =  1: 35 */
(PID.TID 0000.0001)     ;
(PID.TID 0000.0001) PTRACERS_EvPrRn =/* tracer conc. in Evap. & Rain */
(PID.TID 0000.0001)                 1.234567000000000E+05
(PID.TID 0000.0001)     ;
(PID.TID 0000.0001)  -----------------------------------
(PID.TID 0000.0001)  tracer number :   48
(PID.TID 0000.0001) PTRACERS_names = /* Tracer short name */
(PID.TID 0000.0001)               'c30'
(PID.TID 0000.0001)     ;
(PID.TID 0000.0001) PTRACERS_long_names = /* Tracer long name */
(PID.TID 0000.0001)               ''
(PID.TID 0000.0001)     ;
(PID.TID 0000.0001) PTRACERS_ioLabel = /* tracer IO Label */
(PID.TID 0000.0001)               '48'
(PID.TID 0000.0001)     ;
(PID.TID 0000.0001) PTRACERS_advScheme = /* Advection Scheme */
(PID.TID 0000.0001)                      33
(PID.TID 0000.0001)     ;
(PID.TID 0000.0001) PTRACERS_SOM_Advection = /* tracer uses SOM advection scheme */
(PID.TID 0000.0001)                   F
(PID.TID 0000.0001)     ;
(PID.TID 0000.0001) PTRACERS_ImplVertAdv = /* implicit vert. advection flag */
(PID.TID 0000.0001)                   F
(PID.TID 0000.0001)     ;
(PID.TID 0000.0001) PTRACERS_diffKh = /* Laplacian Diffusivity */
(PID.TID 0000.0001)                 0.000000000000000E+00
(PID.TID 0000.0001)     ;
(PID.TID 0000.0001) PTRACERS_diffK4 = /* Biharmonic Diffusivity */
(PID.TID 0000.0001)                 0.000000000000000E+00
(PID.TID 0000.0001)     ;
(PID.TID 0000.0001) PTRACERS_diffKrNr = /* Vertical Diffusivity */
(PID.TID 0000.0001)    35 @  1.000000000000000E-05              /* K =  1: 35 */
(PID.TID 0000.0001)     ;
(PID.TID 0000.0001) PTRACERS_useGMRedi = /* apply GM-Redi */
(PID.TID 0000.0001)                   F
(PID.TID 0000.0001)     ;
(PID.TID 0000.0001) PTRACERS_useDWNSLP = /* apply DOWN-SLOPE Flow */
(PID.TID 0000.0001)                   F
(PID.TID 0000.0001)     ;
(PID.TID 0000.0001) PTRACERS_useKPP = /* apply KPP scheme */
(PID.TID 0000.0001)                   F
(PID.TID 0000.0001)     ;
(PID.TID 0000.0001) PTRACERS_ref = /* Reference vertical profile */
(PID.TID 0000.0001)    35 @  0.000000000000000E+00              /* K =  1: 35 */
(PID.TID 0000.0001)     ;
(PID.TID 0000.0001) PTRACERS_EvPrRn =/* tracer conc. in Evap. & Rain */
(PID.TID 0000.0001)                 1.234567000000000E+05
(PID.TID 0000.0001)     ;
(PID.TID 0000.0001)  -----------------------------------
(PID.TID 0000.0001)  tracer number :   49
(PID.TID 0000.0001) PTRACERS_names = /* Tracer short name */
(PID.TID 0000.0001)               'c31'
(PID.TID 0000.0001)     ;
(PID.TID 0000.0001) PTRACERS_long_names = /* Tracer long name */
(PID.TID 0000.0001)               ''
(PID.TID 0000.0001)     ;
(PID.TID 0000.0001) PTRACERS_ioLabel = /* tracer IO Label */
(PID.TID 0000.0001)               '49'
(PID.TID 0000.0001)     ;
(PID.TID 0000.0001) PTRACERS_advScheme = /* Advection Scheme */
(PID.TID 0000.0001)                      33
(PID.TID 0000.0001)     ;
(PID.TID 0000.0001) PTRACERS_SOM_Advection = /* tracer uses SOM advection scheme */
(PID.TID 0000.0001)                   F
(PID.TID 0000.0001)     ;
(PID.TID 0000.0001) PTRACERS_ImplVertAdv = /* implicit vert. advection flag */
(PID.TID 0000.0001)                   F
(PID.TID 0000.0001)     ;
(PID.TID 0000.0001) PTRACERS_diffKh = /* Laplacian Diffusivity */
(PID.TID 0000.0001)                 0.000000000000000E+00
(PID.TID 0000.0001)     ;
(PID.TID 0000.0001) PTRACERS_diffK4 = /* Biharmonic Diffusivity */
(PID.TID 0000.0001)                 0.000000000000000E+00
(PID.TID 0000.0001)     ;
(PID.TID 0000.0001) PTRACERS_diffKrNr = /* Vertical Diffusivity */
(PID.TID 0000.0001)    35 @  1.000000000000000E-05              /* K =  1: 35 */
(PID.TID 0000.0001)     ;
(PID.TID 0000.0001) PTRACERS_useGMRedi = /* apply GM-Redi */
(PID.TID 0000.0001)                   F
(PID.TID 0000.0001)     ;
(PID.TID 0000.0001) PTRACERS_useDWNSLP = /* apply DOWN-SLOPE Flow */
(PID.TID 0000.0001)                   F
(PID.TID 0000.0001)     ;
(PID.TID 0000.0001) PTRACERS_useKPP = /* apply KPP scheme */
(PID.TID 0000.0001)                   F
(PID.TID 0000.0001)     ;
(PID.TID 0000.0001) PTRACERS_ref = /* Reference vertical profile */
(PID.TID 0000.0001)    35 @  0.000000000000000E+00              /* K =  1: 35 */
(PID.TID 0000.0001)     ;
(PID.TID 0000.0001) PTRACERS_EvPrRn =/* tracer conc. in Evap. & Rain */
(PID.TID 0000.0001)                 1.234567000000000E+05
(PID.TID 0000.0001)     ;
(PID.TID 0000.0001)  -----------------------------------
(PID.TID 0000.0001)  tracer number :   50
(PID.TID 0000.0001) PTRACERS_names = /* Tracer short name */
(PID.TID 0000.0001)               'c32'
(PID.TID 0000.0001)     ;
(PID.TID 0000.0001) PTRACERS_long_names = /* Tracer long name */
(PID.TID 0000.0001)               ''
(PID.TID 0000.0001)     ;
(PID.TID 0000.0001) PTRACERS_ioLabel = /* tracer IO Label */
(PID.TID 0000.0001)               '50'
(PID.TID 0000.0001)     ;
(PID.TID 0000.0001) PTRACERS_advScheme = /* Advection Scheme */
(PID.TID 0000.0001)                      33
(PID.TID 0000.0001)     ;
(PID.TID 0000.0001) PTRACERS_SOM_Advection = /* tracer uses SOM advection scheme */
(PID.TID 0000.0001)                   F
(PID.TID 0000.0001)     ;
(PID.TID 0000.0001) PTRACERS_ImplVertAdv = /* implicit vert. advection flag */
(PID.TID 0000.0001)                   F
(PID.TID 0000.0001)     ;
(PID.TID 0000.0001) PTRACERS_diffKh = /* Laplacian Diffusivity */
(PID.TID 0000.0001)                 0.000000000000000E+00
(PID.TID 0000.0001)     ;
(PID.TID 0000.0001) PTRACERS_diffK4 = /* Biharmonic Diffusivity */
(PID.TID 0000.0001)                 0.000000000000000E+00
(PID.TID 0000.0001)     ;
(PID.TID 0000.0001) PTRACERS_diffKrNr = /* Vertical Diffusivity */
(PID.TID 0000.0001)    35 @  1.000000000000000E-05              /* K =  1: 35 */
(PID.TID 0000.0001)     ;
(PID.TID 0000.0001) PTRACERS_useGMRedi = /* apply GM-Redi */
(PID.TID 0000.0001)                   F
(PID.TID 0000.0001)     ;
(PID.TID 0000.0001) PTRACERS_useDWNSLP = /* apply DOWN-SLOPE Flow */
(PID.TID 0000.0001)                   F
(PID.TID 0000.0001)     ;
(PID.TID 0000.0001) PTRACERS_useKPP = /* apply KPP scheme */
(PID.TID 0000.0001)                   F
(PID.TID 0000.0001)     ;
(PID.TID 0000.0001) PTRACERS_ref = /* Reference vertical profile */
(PID.TID 0000.0001)    35 @  0.000000000000000E+00              /* K =  1: 35 */
(PID.TID 0000.0001)     ;
(PID.TID 0000.0001) PTRACERS_EvPrRn =/* tracer conc. in Evap. & Rain */
(PID.TID 0000.0001)                 1.234567000000000E+05
(PID.TID 0000.0001)     ;
(PID.TID 0000.0001)  -----------------------------------
(PID.TID 0000.0001)  tracer number :   51
(PID.TID 0000.0001) PTRACERS_names = /* Tracer short name */
(PID.TID 0000.0001)               'c33'
(PID.TID 0000.0001)     ;
(PID.TID 0000.0001) PTRACERS_long_names = /* Tracer long name */
(PID.TID 0000.0001)               ''
(PID.TID 0000.0001)     ;
(PID.TID 0000.0001) PTRACERS_ioLabel = /* tracer IO Label */
(PID.TID 0000.0001)               '51'
(PID.TID 0000.0001)     ;
(PID.TID 0000.0001) PTRACERS_advScheme = /* Advection Scheme */
(PID.TID 0000.0001)                      33
(PID.TID 0000.0001)     ;
(PID.TID 0000.0001) PTRACERS_SOM_Advection = /* tracer uses SOM advection scheme */
(PID.TID 0000.0001)                   F
(PID.TID 0000.0001)     ;
(PID.TID 0000.0001) PTRACERS_ImplVertAdv = /* implicit vert. advection flag */
(PID.TID 0000.0001)                   F
(PID.TID 0000.0001)     ;
(PID.TID 0000.0001) PTRACERS_diffKh = /* Laplacian Diffusivity */
(PID.TID 0000.0001)                 0.000000000000000E+00
(PID.TID 0000.0001)     ;
(PID.TID 0000.0001) PTRACERS_diffK4 = /* Biharmonic Diffusivity */
(PID.TID 0000.0001)                 0.000000000000000E+00
(PID.TID 0000.0001)     ;
(PID.TID 0000.0001) PTRACERS_diffKrNr = /* Vertical Diffusivity */
(PID.TID 0000.0001)    35 @  1.000000000000000E-05              /* K =  1: 35 */
(PID.TID 0000.0001)     ;
(PID.TID 0000.0001) PTRACERS_useGMRedi = /* apply GM-Redi */
(PID.TID 0000.0001)                   F
(PID.TID 0000.0001)     ;
(PID.TID 0000.0001) PTRACERS_useDWNSLP = /* apply DOWN-SLOPE Flow */
(PID.TID 0000.0001)                   F
(PID.TID 0000.0001)     ;
(PID.TID 0000.0001) PTRACERS_useKPP = /* apply KPP scheme */
(PID.TID 0000.0001)                   F
(PID.TID 0000.0001)     ;
(PID.TID 0000.0001) PTRACERS_ref = /* Reference vertical profile */
(PID.TID 0000.0001)    35 @  0.000000000000000E+00              /* K =  1: 35 */
(PID.TID 0000.0001)     ;
(PID.TID 0000.0001) PTRACERS_EvPrRn =/* tracer conc. in Evap. & Rain */
(PID.TID 0000.0001)                 1.234567000000000E+05
(PID.TID 0000.0001)     ;
(PID.TID 0000.0001)  -----------------------------------
(PID.TID 0000.0001)  tracer number :   52
(PID.TID 0000.0001) PTRACERS_names = /* Tracer short name */
(PID.TID 0000.0001)               'c34'
(PID.TID 0000.0001)     ;
(PID.TID 0000.0001) PTRACERS_long_names = /* Tracer long name */
(PID.TID 0000.0001)               ''
(PID.TID 0000.0001)     ;
(PID.TID 0000.0001) PTRACERS_ioLabel = /* tracer IO Label */
(PID.TID 0000.0001)               '52'
(PID.TID 0000.0001)     ;
(PID.TID 0000.0001) PTRACERS_advScheme = /* Advection Scheme */
(PID.TID 0000.0001)                      33
(PID.TID 0000.0001)     ;
(PID.TID 0000.0001) PTRACERS_SOM_Advection = /* tracer uses SOM advection scheme */
(PID.TID 0000.0001)                   F
(PID.TID 0000.0001)     ;
(PID.TID 0000.0001) PTRACERS_ImplVertAdv = /* implicit vert. advection flag */
(PID.TID 0000.0001)                   F
(PID.TID 0000.0001)     ;
(PID.TID 0000.0001) PTRACERS_diffKh = /* Laplacian Diffusivity */
(PID.TID 0000.0001)                 0.000000000000000E+00
(PID.TID 0000.0001)     ;
(PID.TID 0000.0001) PTRACERS_diffK4 = /* Biharmonic Diffusivity */
(PID.TID 0000.0001)                 0.000000000000000E+00
(PID.TID 0000.0001)     ;
(PID.TID 0000.0001) PTRACERS_diffKrNr = /* Vertical Diffusivity */
(PID.TID 0000.0001)    35 @  1.000000000000000E-05              /* K =  1: 35 */
(PID.TID 0000.0001)     ;
(PID.TID 0000.0001) PTRACERS_useGMRedi = /* apply GM-Redi */
(PID.TID 0000.0001)                   F
(PID.TID 0000.0001)     ;
(PID.TID 0000.0001) PTRACERS_useDWNSLP = /* apply DOWN-SLOPE Flow */
(PID.TID 0000.0001)                   F
(PID.TID 0000.0001)     ;
(PID.TID 0000.0001) PTRACERS_useKPP = /* apply KPP scheme */
(PID.TID 0000.0001)                   F
(PID.TID 0000.0001)     ;
(PID.TID 0000.0001) PTRACERS_ref = /* Reference vertical profile */
(PID.TID 0000.0001)    35 @  0.000000000000000E+00              /* K =  1: 35 */
(PID.TID 0000.0001)     ;
(PID.TID 0000.0001) PTRACERS_EvPrRn =/* tracer conc. in Evap. & Rain */
(PID.TID 0000.0001)                 1.234567000000000E+05
(PID.TID 0000.0001)     ;
(PID.TID 0000.0001)  -----------------------------------
(PID.TID 0000.0001)  tracer number :   53
(PID.TID 0000.0001) PTRACERS_names = /* Tracer short name */
(PID.TID 0000.0001)               'c35'
(PID.TID 0000.0001)     ;
(PID.TID 0000.0001) PTRACERS_long_names = /* Tracer long name */
(PID.TID 0000.0001)               ''
(PID.TID 0000.0001)     ;
(PID.TID 0000.0001) PTRACERS_ioLabel = /* tracer IO Label */
(PID.TID 0000.0001)               '53'
(PID.TID 0000.0001)     ;
(PID.TID 0000.0001) PTRACERS_advScheme = /* Advection Scheme */
(PID.TID 0000.0001)                      33
(PID.TID 0000.0001)     ;
(PID.TID 0000.0001) PTRACERS_SOM_Advection = /* tracer uses SOM advection scheme */
(PID.TID 0000.0001)                   F
(PID.TID 0000.0001)     ;
(PID.TID 0000.0001) PTRACERS_ImplVertAdv = /* implicit vert. advection flag */
(PID.TID 0000.0001)                   F
(PID.TID 0000.0001)     ;
(PID.TID 0000.0001) PTRACERS_diffKh = /* Laplacian Diffusivity */
(PID.TID 0000.0001)                 0.000000000000000E+00
(PID.TID 0000.0001)     ;
(PID.TID 0000.0001) PTRACERS_diffK4 = /* Biharmonic Diffusivity */
(PID.TID 0000.0001)                 0.000000000000000E+00
(PID.TID 0000.0001)     ;
(PID.TID 0000.0001) PTRACERS_diffKrNr = /* Vertical Diffusivity */
(PID.TID 0000.0001)    35 @  1.000000000000000E-05              /* K =  1: 35 */
(PID.TID 0000.0001)     ;
(PID.TID 0000.0001) PTRACERS_useGMRedi = /* apply GM-Redi */
(PID.TID 0000.0001)                   F
(PID.TID 0000.0001)     ;
(PID.TID 0000.0001) PTRACERS_useDWNSLP = /* apply DOWN-SLOPE Flow */
(PID.TID 0000.0001)                   F
(PID.TID 0000.0001)     ;
(PID.TID 0000.0001) PTRACERS_useKPP = /* apply KPP scheme */
(PID.TID 0000.0001)                   F
(PID.TID 0000.0001)     ;
(PID.TID 0000.0001) PTRACERS_ref = /* Reference vertical profile */
(PID.TID 0000.0001)    35 @  0.000000000000000E+00              /* K =  1: 35 */
(PID.TID 0000.0001)     ;
(PID.TID 0000.0001) PTRACERS_EvPrRn =/* tracer conc. in Evap. & Rain */
(PID.TID 0000.0001)                 1.234567000000000E+05
(PID.TID 0000.0001)     ;
(PID.TID 0000.0001)  -----------------------------------
(PID.TID 0000.0001)  tracer number :   54
(PID.TID 0000.0001) PTRACERS_names = /* Tracer short name */
(PID.TID 0000.0001)               'c36'
(PID.TID 0000.0001)     ;
(PID.TID 0000.0001) PTRACERS_long_names = /* Tracer long name */
(PID.TID 0000.0001)               ''
(PID.TID 0000.0001)     ;
(PID.TID 0000.0001) PTRACERS_ioLabel = /* tracer IO Label */
(PID.TID 0000.0001)               '54'
(PID.TID 0000.0001)     ;
(PID.TID 0000.0001) PTRACERS_advScheme = /* Advection Scheme */
(PID.TID 0000.0001)                      33
(PID.TID 0000.0001)     ;
(PID.TID 0000.0001) PTRACERS_SOM_Advection = /* tracer uses SOM advection scheme */
(PID.TID 0000.0001)                   F
(PID.TID 0000.0001)     ;
(PID.TID 0000.0001) PTRACERS_ImplVertAdv = /* implicit vert. advection flag */
(PID.TID 0000.0001)                   F
(PID.TID 0000.0001)     ;
(PID.TID 0000.0001) PTRACERS_diffKh = /* Laplacian Diffusivity */
(PID.TID 0000.0001)                 0.000000000000000E+00
(PID.TID 0000.0001)     ;
(PID.TID 0000.0001) PTRACERS_diffK4 = /* Biharmonic Diffusivity */
(PID.TID 0000.0001)                 0.000000000000000E+00
(PID.TID 0000.0001)     ;
(PID.TID 0000.0001) PTRACERS_diffKrNr = /* Vertical Diffusivity */
(PID.TID 0000.0001)    35 @  1.000000000000000E-05              /* K =  1: 35 */
(PID.TID 0000.0001)     ;
(PID.TID 0000.0001) PTRACERS_useGMRedi = /* apply GM-Redi */
(PID.TID 0000.0001)                   F
(PID.TID 0000.0001)     ;
(PID.TID 0000.0001) PTRACERS_useDWNSLP = /* apply DOWN-SLOPE Flow */
(PID.TID 0000.0001)                   F
(PID.TID 0000.0001)     ;
(PID.TID 0000.0001) PTRACERS_useKPP = /* apply KPP scheme */
(PID.TID 0000.0001)                   F
(PID.TID 0000.0001)     ;
(PID.TID 0000.0001) PTRACERS_ref = /* Reference vertical profile */
(PID.TID 0000.0001)    35 @  0.000000000000000E+00              /* K =  1: 35 */
(PID.TID 0000.0001)     ;
(PID.TID 0000.0001) PTRACERS_EvPrRn =/* tracer conc. in Evap. & Rain */
(PID.TID 0000.0001)                 1.234567000000000E+05
(PID.TID 0000.0001)     ;
(PID.TID 0000.0001)  -----------------------------------
(PID.TID 0000.0001)  tracer number :   55
(PID.TID 0000.0001) PTRACERS_names = /* Tracer short name */
(PID.TID 0000.0001)               'c37'
(PID.TID 0000.0001)     ;
(PID.TID 0000.0001) PTRACERS_long_names = /* Tracer long name */
(PID.TID 0000.0001)               ''
(PID.TID 0000.0001)     ;
(PID.TID 0000.0001) PTRACERS_ioLabel = /* tracer IO Label */
(PID.TID 0000.0001)               '55'
(PID.TID 0000.0001)     ;
(PID.TID 0000.0001) PTRACERS_advScheme = /* Advection Scheme */
(PID.TID 0000.0001)                      33
(PID.TID 0000.0001)     ;
(PID.TID 0000.0001) PTRACERS_SOM_Advection = /* tracer uses SOM advection scheme */
(PID.TID 0000.0001)                   F
(PID.TID 0000.0001)     ;
(PID.TID 0000.0001) PTRACERS_ImplVertAdv = /* implicit vert. advection flag */
(PID.TID 0000.0001)                   F
(PID.TID 0000.0001)     ;
(PID.TID 0000.0001) PTRACERS_diffKh = /* Laplacian Diffusivity */
(PID.TID 0000.0001)                 0.000000000000000E+00
(PID.TID 0000.0001)     ;
(PID.TID 0000.0001) PTRACERS_diffK4 = /* Biharmonic Diffusivity */
(PID.TID 0000.0001)                 0.000000000000000E+00
(PID.TID 0000.0001)     ;
(PID.TID 0000.0001) PTRACERS_diffKrNr = /* Vertical Diffusivity */
(PID.TID 0000.0001)    35 @  1.000000000000000E-05              /* K =  1: 35 */
(PID.TID 0000.0001)     ;
(PID.TID 0000.0001) PTRACERS_useGMRedi = /* apply GM-Redi */
(PID.TID 0000.0001)                   F
(PID.TID 0000.0001)     ;
(PID.TID 0000.0001) PTRACERS_useDWNSLP = /* apply DOWN-SLOPE Flow */
(PID.TID 0000.0001)                   F
(PID.TID 0000.0001)     ;
(PID.TID 0000.0001) PTRACERS_useKPP = /* apply KPP scheme */
(PID.TID 0000.0001)                   F
(PID.TID 0000.0001)     ;
(PID.TID 0000.0001) PTRACERS_ref = /* Reference vertical profile */
(PID.TID 0000.0001)    35 @  0.000000000000000E+00              /* K =  1: 35 */
(PID.TID 0000.0001)     ;
(PID.TID 0000.0001) PTRACERS_EvPrRn =/* tracer conc. in Evap. & Rain */
(PID.TID 0000.0001)                 1.234567000000000E+05
(PID.TID 0000.0001)     ;
(PID.TID 0000.0001)  -----------------------------------
(PID.TID 0000.0001)  tracer number :   56
(PID.TID 0000.0001) PTRACERS_names = /* Tracer short name */
(PID.TID 0000.0001)               'c38'
(PID.TID 0000.0001)     ;
(PID.TID 0000.0001) PTRACERS_long_names = /* Tracer long name */
(PID.TID 0000.0001)               ''
(PID.TID 0000.0001)     ;
(PID.TID 0000.0001) PTRACERS_ioLabel = /* tracer IO Label */
(PID.TID 0000.0001)               '56'
(PID.TID 0000.0001)     ;
(PID.TID 0000.0001) PTRACERS_advScheme = /* Advection Scheme */
(PID.TID 0000.0001)                      33
(PID.TID 0000.0001)     ;
(PID.TID 0000.0001) PTRACERS_SOM_Advection = /* tracer uses SOM advection scheme */
(PID.TID 0000.0001)                   F
(PID.TID 0000.0001)     ;
(PID.TID 0000.0001) PTRACERS_ImplVertAdv = /* implicit vert. advection flag */
(PID.TID 0000.0001)                   F
(PID.TID 0000.0001)     ;
(PID.TID 0000.0001) PTRACERS_diffKh = /* Laplacian Diffusivity */
(PID.TID 0000.0001)                 0.000000000000000E+00
(PID.TID 0000.0001)     ;
(PID.TID 0000.0001) PTRACERS_diffK4 = /* Biharmonic Diffusivity */
(PID.TID 0000.0001)                 0.000000000000000E+00
(PID.TID 0000.0001)     ;
(PID.TID 0000.0001) PTRACERS_diffKrNr = /* Vertical Diffusivity */
(PID.TID 0000.0001)    35 @  1.000000000000000E-05              /* K =  1: 35 */
(PID.TID 0000.0001)     ;
(PID.TID 0000.0001) PTRACERS_useGMRedi = /* apply GM-Redi */
(PID.TID 0000.0001)                   F
(PID.TID 0000.0001)     ;
(PID.TID 0000.0001) PTRACERS_useDWNSLP = /* apply DOWN-SLOPE Flow */
(PID.TID 0000.0001)                   F
(PID.TID 0000.0001)     ;
(PID.TID 0000.0001) PTRACERS_useKPP = /* apply KPP scheme */
(PID.TID 0000.0001)                   F
(PID.TID 0000.0001)     ;
(PID.TID 0000.0001) PTRACERS_ref = /* Reference vertical profile */
(PID.TID 0000.0001)    35 @  0.000000000000000E+00              /* K =  1: 35 */
(PID.TID 0000.0001)     ;
(PID.TID 0000.0001) PTRACERS_EvPrRn =/* tracer conc. in Evap. & Rain */
(PID.TID 0000.0001)                 1.234567000000000E+05
(PID.TID 0000.0001)     ;
(PID.TID 0000.0001)  -----------------------------------
(PID.TID 0000.0001)  tracer number :   57
(PID.TID 0000.0001) PTRACERS_names = /* Tracer short name */
(PID.TID 0000.0001)               'c39'
(PID.TID 0000.0001)     ;
(PID.TID 0000.0001) PTRACERS_long_names = /* Tracer long name */
(PID.TID 0000.0001)               ''
(PID.TID 0000.0001)     ;
(PID.TID 0000.0001) PTRACERS_ioLabel = /* tracer IO Label */
(PID.TID 0000.0001)               '57'
(PID.TID 0000.0001)     ;
(PID.TID 0000.0001) PTRACERS_advScheme = /* Advection Scheme */
(PID.TID 0000.0001)                      33
(PID.TID 0000.0001)     ;
(PID.TID 0000.0001) PTRACERS_SOM_Advection = /* tracer uses SOM advection scheme */
(PID.TID 0000.0001)                   F
(PID.TID 0000.0001)     ;
(PID.TID 0000.0001) PTRACERS_ImplVertAdv = /* implicit vert. advection flag */
(PID.TID 0000.0001)                   F
(PID.TID 0000.0001)     ;
(PID.TID 0000.0001) PTRACERS_diffKh = /* Laplacian Diffusivity */
(PID.TID 0000.0001)                 0.000000000000000E+00
(PID.TID 0000.0001)     ;
(PID.TID 0000.0001) PTRACERS_diffK4 = /* Biharmonic Diffusivity */
(PID.TID 0000.0001)                 0.000000000000000E+00
(PID.TID 0000.0001)     ;
(PID.TID 0000.0001) PTRACERS_diffKrNr = /* Vertical Diffusivity */
(PID.TID 0000.0001)    35 @  1.000000000000000E-05              /* K =  1: 35 */
(PID.TID 0000.0001)     ;
(PID.TID 0000.0001) PTRACERS_useGMRedi = /* apply GM-Redi */
(PID.TID 0000.0001)                   F
(PID.TID 0000.0001)     ;
(PID.TID 0000.0001) PTRACERS_useDWNSLP = /* apply DOWN-SLOPE Flow */
(PID.TID 0000.0001)                   F
(PID.TID 0000.0001)     ;
(PID.TID 0000.0001) PTRACERS_useKPP = /* apply KPP scheme */
(PID.TID 0000.0001)                   F
(PID.TID 0000.0001)     ;
(PID.TID 0000.0001) PTRACERS_ref = /* Reference vertical profile */
(PID.TID 0000.0001)    35 @  0.000000000000000E+00              /* K =  1: 35 */
(PID.TID 0000.0001)     ;
(PID.TID 0000.0001) PTRACERS_EvPrRn =/* tracer conc. in Evap. & Rain */
(PID.TID 0000.0001)                 1.234567000000000E+05
(PID.TID 0000.0001)     ;
(PID.TID 0000.0001)  -----------------------------------
(PID.TID 0000.0001)  tracer number :   58
(PID.TID 0000.0001) PTRACERS_names = /* Tracer short name */
(PID.TID 0000.0001)               'c40'
(PID.TID 0000.0001)     ;
(PID.TID 0000.0001) PTRACERS_long_names = /* Tracer long name */
(PID.TID 0000.0001)               ''
(PID.TID 0000.0001)     ;
(PID.TID 0000.0001) PTRACERS_ioLabel = /* tracer IO Label */
(PID.TID 0000.0001)               '58'
(PID.TID 0000.0001)     ;
(PID.TID 0000.0001) PTRACERS_advScheme = /* Advection Scheme */
(PID.TID 0000.0001)                      33
(PID.TID 0000.0001)     ;
(PID.TID 0000.0001) PTRACERS_SOM_Advection = /* tracer uses SOM advection scheme */
(PID.TID 0000.0001)                   F
(PID.TID 0000.0001)     ;
(PID.TID 0000.0001) PTRACERS_ImplVertAdv = /* implicit vert. advection flag */
(PID.TID 0000.0001)                   F
(PID.TID 0000.0001)     ;
(PID.TID 0000.0001) PTRACERS_diffKh = /* Laplacian Diffusivity */
(PID.TID 0000.0001)                 0.000000000000000E+00
(PID.TID 0000.0001)     ;
(PID.TID 0000.0001) PTRACERS_diffK4 = /* Biharmonic Diffusivity */
(PID.TID 0000.0001)                 0.000000000000000E+00
(PID.TID 0000.0001)     ;
(PID.TID 0000.0001) PTRACERS_diffKrNr = /* Vertical Diffusivity */
(PID.TID 0000.0001)    35 @  1.000000000000000E-05              /* K =  1: 35 */
(PID.TID 0000.0001)     ;
(PID.TID 0000.0001) PTRACERS_useGMRedi = /* apply GM-Redi */
(PID.TID 0000.0001)                   F
(PID.TID 0000.0001)     ;
(PID.TID 0000.0001) PTRACERS_useDWNSLP = /* apply DOWN-SLOPE Flow */
(PID.TID 0000.0001)                   F
(PID.TID 0000.0001)     ;
(PID.TID 0000.0001) PTRACERS_useKPP = /* apply KPP scheme */
(PID.TID 0000.0001)                   F
(PID.TID 0000.0001)     ;
(PID.TID 0000.0001) PTRACERS_ref = /* Reference vertical profile */
(PID.TID 0000.0001)    35 @  0.000000000000000E+00              /* K =  1: 35 */
(PID.TID 0000.0001)     ;
(PID.TID 0000.0001) PTRACERS_EvPrRn =/* tracer conc. in Evap. & Rain */
(PID.TID 0000.0001)                 1.234567000000000E+05
(PID.TID 0000.0001)     ;
(PID.TID 0000.0001)  -----------------------------------
(PID.TID 0000.0001)  tracer number :   59
(PID.TID 0000.0001) PTRACERS_names = /* Tracer short name */
(PID.TID 0000.0001)               'c41'
(PID.TID 0000.0001)     ;
(PID.TID 0000.0001) PTRACERS_long_names = /* Tracer long name */
(PID.TID 0000.0001)               ''
(PID.TID 0000.0001)     ;
(PID.TID 0000.0001) PTRACERS_ioLabel = /* tracer IO Label */
(PID.TID 0000.0001)               '59'
(PID.TID 0000.0001)     ;
(PID.TID 0000.0001) PTRACERS_advScheme = /* Advection Scheme */
(PID.TID 0000.0001)                      33
(PID.TID 0000.0001)     ;
(PID.TID 0000.0001) PTRACERS_SOM_Advection = /* tracer uses SOM advection scheme */
(PID.TID 0000.0001)                   F
(PID.TID 0000.0001)     ;
(PID.TID 0000.0001) PTRACERS_ImplVertAdv = /* implicit vert. advection flag */
(PID.TID 0000.0001)                   F
(PID.TID 0000.0001)     ;
(PID.TID 0000.0001) PTRACERS_diffKh = /* Laplacian Diffusivity */
(PID.TID 0000.0001)                 0.000000000000000E+00
(PID.TID 0000.0001)     ;
(PID.TID 0000.0001) PTRACERS_diffK4 = /* Biharmonic Diffusivity */
(PID.TID 0000.0001)                 0.000000000000000E+00
(PID.TID 0000.0001)     ;
(PID.TID 0000.0001) PTRACERS_diffKrNr = /* Vertical Diffusivity */
(PID.TID 0000.0001)    35 @  1.000000000000000E-05              /* K =  1: 35 */
(PID.TID 0000.0001)     ;
(PID.TID 0000.0001) PTRACERS_useGMRedi = /* apply GM-Redi */
(PID.TID 0000.0001)                   F
(PID.TID 0000.0001)     ;
(PID.TID 0000.0001) PTRACERS_useDWNSLP = /* apply DOWN-SLOPE Flow */
(PID.TID 0000.0001)                   F
(PID.TID 0000.0001)     ;
(PID.TID 0000.0001) PTRACERS_useKPP = /* apply KPP scheme */
(PID.TID 0000.0001)                   F
(PID.TID 0000.0001)     ;
(PID.TID 0000.0001) PTRACERS_ref = /* Reference vertical profile */
(PID.TID 0000.0001)    35 @  0.000000000000000E+00              /* K =  1: 35 */
(PID.TID 0000.0001)     ;
(PID.TID 0000.0001) PTRACERS_EvPrRn =/* tracer conc. in Evap. & Rain */
(PID.TID 0000.0001)                 1.234567000000000E+05
(PID.TID 0000.0001)     ;
(PID.TID 0000.0001)  -----------------------------------
(PID.TID 0000.0001)  tracer number :   60
(PID.TID 0000.0001) PTRACERS_names = /* Tracer short name */
(PID.TID 0000.0001)               'c42'
(PID.TID 0000.0001)     ;
(PID.TID 0000.0001) PTRACERS_long_names = /* Tracer long name */
(PID.TID 0000.0001)               ''
(PID.TID 0000.0001)     ;
(PID.TID 0000.0001) PTRACERS_ioLabel = /* tracer IO Label */
(PID.TID 0000.0001)               '60'
(PID.TID 0000.0001)     ;
(PID.TID 0000.0001) PTRACERS_advScheme = /* Advection Scheme */
(PID.TID 0000.0001)                      33
(PID.TID 0000.0001)     ;
(PID.TID 0000.0001) PTRACERS_SOM_Advection = /* tracer uses SOM advection scheme */
(PID.TID 0000.0001)                   F
(PID.TID 0000.0001)     ;
(PID.TID 0000.0001) PTRACERS_ImplVertAdv = /* implicit vert. advection flag */
(PID.TID 0000.0001)                   F
(PID.TID 0000.0001)     ;
(PID.TID 0000.0001) PTRACERS_diffKh = /* Laplacian Diffusivity */
(PID.TID 0000.0001)                 0.000000000000000E+00
(PID.TID 0000.0001)     ;
(PID.TID 0000.0001) PTRACERS_diffK4 = /* Biharmonic Diffusivity */
(PID.TID 0000.0001)                 0.000000000000000E+00
(PID.TID 0000.0001)     ;
(PID.TID 0000.0001) PTRACERS_diffKrNr = /* Vertical Diffusivity */
(PID.TID 0000.0001)    35 @  1.000000000000000E-05              /* K =  1: 35 */
(PID.TID 0000.0001)     ;
(PID.TID 0000.0001) PTRACERS_useGMRedi = /* apply GM-Redi */
(PID.TID 0000.0001)                   F
(PID.TID 0000.0001)     ;
(PID.TID 0000.0001) PTRACERS_useDWNSLP = /* apply DOWN-SLOPE Flow */
(PID.TID 0000.0001)                   F
(PID.TID 0000.0001)     ;
(PID.TID 0000.0001) PTRACERS_useKPP = /* apply KPP scheme */
(PID.TID 0000.0001)                   F
(PID.TID 0000.0001)     ;
(PID.TID 0000.0001) PTRACERS_ref = /* Reference vertical profile */
(PID.TID 0000.0001)    35 @  0.000000000000000E+00              /* K =  1: 35 */
(PID.TID 0000.0001)     ;
(PID.TID 0000.0001) PTRACERS_EvPrRn =/* tracer conc. in Evap. & Rain */
(PID.TID 0000.0001)                 1.234567000000000E+05
(PID.TID 0000.0001)     ;
(PID.TID 0000.0001)  -----------------------------------
(PID.TID 0000.0001)  tracer number :   61
(PID.TID 0000.0001) PTRACERS_names = /* Tracer short name */
(PID.TID 0000.0001)               'c43'
(PID.TID 0000.0001)     ;
(PID.TID 0000.0001) PTRACERS_long_names = /* Tracer long name */
(PID.TID 0000.0001)               ''
(PID.TID 0000.0001)     ;
(PID.TID 0000.0001) PTRACERS_ioLabel = /* tracer IO Label */
(PID.TID 0000.0001)               '61'
(PID.TID 0000.0001)     ;
(PID.TID 0000.0001) PTRACERS_advScheme = /* Advection Scheme */
(PID.TID 0000.0001)                      33
(PID.TID 0000.0001)     ;
(PID.TID 0000.0001) PTRACERS_SOM_Advection = /* tracer uses SOM advection scheme */
(PID.TID 0000.0001)                   F
(PID.TID 0000.0001)     ;
(PID.TID 0000.0001) PTRACERS_ImplVertAdv = /* implicit vert. advection flag */
(PID.TID 0000.0001)                   F
(PID.TID 0000.0001)     ;
(PID.TID 0000.0001) PTRACERS_diffKh = /* Laplacian Diffusivity */
(PID.TID 0000.0001)                 0.000000000000000E+00
(PID.TID 0000.0001)     ;
(PID.TID 0000.0001) PTRACERS_diffK4 = /* Biharmonic Diffusivity */
(PID.TID 0000.0001)                 0.000000000000000E+00
(PID.TID 0000.0001)     ;
(PID.TID 0000.0001) PTRACERS_diffKrNr = /* Vertical Diffusivity */
(PID.TID 0000.0001)    35 @  1.000000000000000E-05              /* K =  1: 35 */
(PID.TID 0000.0001)     ;
(PID.TID 0000.0001) PTRACERS_useGMRedi = /* apply GM-Redi */
(PID.TID 0000.0001)                   F
(PID.TID 0000.0001)     ;
(PID.TID 0000.0001) PTRACERS_useDWNSLP = /* apply DOWN-SLOPE Flow */
(PID.TID 0000.0001)                   F
(PID.TID 0000.0001)     ;
(PID.TID 0000.0001) PTRACERS_useKPP = /* apply KPP scheme */
(PID.TID 0000.0001)                   F
(PID.TID 0000.0001)     ;
(PID.TID 0000.0001) PTRACERS_ref = /* Reference vertical profile */
(PID.TID 0000.0001)    35 @  0.000000000000000E+00              /* K =  1: 35 */
(PID.TID 0000.0001)     ;
(PID.TID 0000.0001) PTRACERS_EvPrRn =/* tracer conc. in Evap. & Rain */
(PID.TID 0000.0001)                 1.234567000000000E+05
(PID.TID 0000.0001)     ;
(PID.TID 0000.0001)  -----------------------------------
(PID.TID 0000.0001)  tracer number :   62
(PID.TID 0000.0001) PTRACERS_names = /* Tracer short name */
(PID.TID 0000.0001)               'c44'
(PID.TID 0000.0001)     ;
(PID.TID 0000.0001) PTRACERS_long_names = /* Tracer long name */
(PID.TID 0000.0001)               ''
(PID.TID 0000.0001)     ;
(PID.TID 0000.0001) PTRACERS_ioLabel = /* tracer IO Label */
(PID.TID 0000.0001)               '62'
(PID.TID 0000.0001)     ;
(PID.TID 0000.0001) PTRACERS_advScheme = /* Advection Scheme */
(PID.TID 0000.0001)                      33
(PID.TID 0000.0001)     ;
(PID.TID 0000.0001) PTRACERS_SOM_Advection = /* tracer uses SOM advection scheme */
(PID.TID 0000.0001)                   F
(PID.TID 0000.0001)     ;
(PID.TID 0000.0001) PTRACERS_ImplVertAdv = /* implicit vert. advection flag */
(PID.TID 0000.0001)                   F
(PID.TID 0000.0001)     ;
(PID.TID 0000.0001) PTRACERS_diffKh = /* Laplacian Diffusivity */
(PID.TID 0000.0001)                 0.000000000000000E+00
(PID.TID 0000.0001)     ;
(PID.TID 0000.0001) PTRACERS_diffK4 = /* Biharmonic Diffusivity */
(PID.TID 0000.0001)                 0.000000000000000E+00
(PID.TID 0000.0001)     ;
(PID.TID 0000.0001) PTRACERS_diffKrNr = /* Vertical Diffusivity */
(PID.TID 0000.0001)    35 @  1.000000000000000E-05              /* K =  1: 35 */
(PID.TID 0000.0001)     ;
(PID.TID 0000.0001) PTRACERS_useGMRedi = /* apply GM-Redi */
(PID.TID 0000.0001)                   F
(PID.TID 0000.0001)     ;
(PID.TID 0000.0001) PTRACERS_useDWNSLP = /* apply DOWN-SLOPE Flow */
(PID.TID 0000.0001)                   F
(PID.TID 0000.0001)     ;
(PID.TID 0000.0001) PTRACERS_useKPP = /* apply KPP scheme */
(PID.TID 0000.0001)                   F
(PID.TID 0000.0001)     ;
(PID.TID 0000.0001) PTRACERS_ref = /* Reference vertical profile */
(PID.TID 0000.0001)    35 @  0.000000000000000E+00              /* K =  1: 35 */
(PID.TID 0000.0001)     ;
(PID.TID 0000.0001) PTRACERS_EvPrRn =/* tracer conc. in Evap. & Rain */
(PID.TID 0000.0001)                 1.234567000000000E+05
(PID.TID 0000.0001)     ;
(PID.TID 0000.0001)  -----------------------------------
(PID.TID 0000.0001)  tracer number :   63
(PID.TID 0000.0001) PTRACERS_names = /* Tracer short name */
(PID.TID 0000.0001)               'c45'
(PID.TID 0000.0001)     ;
(PID.TID 0000.0001) PTRACERS_long_names = /* Tracer long name */
(PID.TID 0000.0001)               ''
(PID.TID 0000.0001)     ;
(PID.TID 0000.0001) PTRACERS_ioLabel = /* tracer IO Label */
(PID.TID 0000.0001)               '63'
(PID.TID 0000.0001)     ;
(PID.TID 0000.0001) PTRACERS_advScheme = /* Advection Scheme */
(PID.TID 0000.0001)                      33
(PID.TID 0000.0001)     ;
(PID.TID 0000.0001) PTRACERS_SOM_Advection = /* tracer uses SOM advection scheme */
(PID.TID 0000.0001)                   F
(PID.TID 0000.0001)     ;
(PID.TID 0000.0001) PTRACERS_ImplVertAdv = /* implicit vert. advection flag */
(PID.TID 0000.0001)                   F
(PID.TID 0000.0001)     ;
(PID.TID 0000.0001) PTRACERS_diffKh = /* Laplacian Diffusivity */
(PID.TID 0000.0001)                 0.000000000000000E+00
(PID.TID 0000.0001)     ;
(PID.TID 0000.0001) PTRACERS_diffK4 = /* Biharmonic Diffusivity */
(PID.TID 0000.0001)                 0.000000000000000E+00
(PID.TID 0000.0001)     ;
(PID.TID 0000.0001) PTRACERS_diffKrNr = /* Vertical Diffusivity */
(PID.TID 0000.0001)    35 @  1.000000000000000E-05              /* K =  1: 35 */
(PID.TID 0000.0001)     ;
(PID.TID 0000.0001) PTRACERS_useGMRedi = /* apply GM-Redi */
(PID.TID 0000.0001)                   F
(PID.TID 0000.0001)     ;
(PID.TID 0000.0001) PTRACERS_useDWNSLP = /* apply DOWN-SLOPE Flow */
(PID.TID 0000.0001)                   F
(PID.TID 0000.0001)     ;
(PID.TID 0000.0001) PTRACERS_useKPP = /* apply KPP scheme */
(PID.TID 0000.0001)                   F
(PID.TID 0000.0001)     ;
(PID.TID 0000.0001) PTRACERS_ref = /* Reference vertical profile */
(PID.TID 0000.0001)    35 @  0.000000000000000E+00              /* K =  1: 35 */
(PID.TID 0000.0001)     ;
(PID.TID 0000.0001) PTRACERS_EvPrRn =/* tracer conc. in Evap. & Rain */
(PID.TID 0000.0001)                 1.234567000000000E+05
(PID.TID 0000.0001)     ;
(PID.TID 0000.0001)  -----------------------------------
(PID.TID 0000.0001)  tracer number :   64
(PID.TID 0000.0001) PTRACERS_names = /* Tracer short name */
(PID.TID 0000.0001)               'c46'
(PID.TID 0000.0001)     ;
(PID.TID 0000.0001) PTRACERS_long_names = /* Tracer long name */
(PID.TID 0000.0001)               ''
(PID.TID 0000.0001)     ;
(PID.TID 0000.0001) PTRACERS_ioLabel = /* tracer IO Label */
(PID.TID 0000.0001)               '64'
(PID.TID 0000.0001)     ;
(PID.TID 0000.0001) PTRACERS_advScheme = /* Advection Scheme */
(PID.TID 0000.0001)                      33
(PID.TID 0000.0001)     ;
(PID.TID 0000.0001) PTRACERS_SOM_Advection = /* tracer uses SOM advection scheme */
(PID.TID 0000.0001)                   F
(PID.TID 0000.0001)     ;
(PID.TID 0000.0001) PTRACERS_ImplVertAdv = /* implicit vert. advection flag */
(PID.TID 0000.0001)                   F
(PID.TID 0000.0001)     ;
(PID.TID 0000.0001) PTRACERS_diffKh = /* Laplacian Diffusivity */
(PID.TID 0000.0001)                 0.000000000000000E+00
(PID.TID 0000.0001)     ;
(PID.TID 0000.0001) PTRACERS_diffK4 = /* Biharmonic Diffusivity */
(PID.TID 0000.0001)                 0.000000000000000E+00
(PID.TID 0000.0001)     ;
(PID.TID 0000.0001) PTRACERS_diffKrNr = /* Vertical Diffusivity */
(PID.TID 0000.0001)    35 @  1.000000000000000E-05              /* K =  1: 35 */
(PID.TID 0000.0001)     ;
(PID.TID 0000.0001) PTRACERS_useGMRedi = /* apply GM-Redi */
(PID.TID 0000.0001)                   F
(PID.TID 0000.0001)     ;
(PID.TID 0000.0001) PTRACERS_useDWNSLP = /* apply DOWN-SLOPE Flow */
(PID.TID 0000.0001)                   F
(PID.TID 0000.0001)     ;
(PID.TID 0000.0001) PTRACERS_useKPP = /* apply KPP scheme */
(PID.TID 0000.0001)                   F
(PID.TID 0000.0001)     ;
(PID.TID 0000.0001) PTRACERS_ref = /* Reference vertical profile */
(PID.TID 0000.0001)    35 @  0.000000000000000E+00              /* K =  1: 35 */
(PID.TID 0000.0001)     ;
(PID.TID 0000.0001) PTRACERS_EvPrRn =/* tracer conc. in Evap. & Rain */
(PID.TID 0000.0001)                 1.234567000000000E+05
(PID.TID 0000.0001)     ;
(PID.TID 0000.0001)  -----------------------------------
(PID.TID 0000.0001)  tracer number :   65
(PID.TID 0000.0001) PTRACERS_names = /* Tracer short name */
(PID.TID 0000.0001)               'c47'
(PID.TID 0000.0001)     ;
(PID.TID 0000.0001) PTRACERS_long_names = /* Tracer long name */
(PID.TID 0000.0001)               ''
(PID.TID 0000.0001)     ;
(PID.TID 0000.0001) PTRACERS_ioLabel = /* tracer IO Label */
(PID.TID 0000.0001)               '65'
(PID.TID 0000.0001)     ;
(PID.TID 0000.0001) PTRACERS_advScheme = /* Advection Scheme */
(PID.TID 0000.0001)                      33
(PID.TID 0000.0001)     ;
(PID.TID 0000.0001) PTRACERS_SOM_Advection = /* tracer uses SOM advection scheme */
(PID.TID 0000.0001)                   F
(PID.TID 0000.0001)     ;
(PID.TID 0000.0001) PTRACERS_ImplVertAdv = /* implicit vert. advection flag */
(PID.TID 0000.0001)                   F
(PID.TID 0000.0001)     ;
(PID.TID 0000.0001) PTRACERS_diffKh = /* Laplacian Diffusivity */
(PID.TID 0000.0001)                 0.000000000000000E+00
(PID.TID 0000.0001)     ;
(PID.TID 0000.0001) PTRACERS_diffK4 = /* Biharmonic Diffusivity */
(PID.TID 0000.0001)                 0.000000000000000E+00
(PID.TID 0000.0001)     ;
(PID.TID 0000.0001) PTRACERS_diffKrNr = /* Vertical Diffusivity */
(PID.TID 0000.0001)    35 @  1.000000000000000E-05              /* K =  1: 35 */
(PID.TID 0000.0001)     ;
(PID.TID 0000.0001) PTRACERS_useGMRedi = /* apply GM-Redi */
(PID.TID 0000.0001)                   F
(PID.TID 0000.0001)     ;
(PID.TID 0000.0001) PTRACERS_useDWNSLP = /* apply DOWN-SLOPE Flow */
(PID.TID 0000.0001)                   F
(PID.TID 0000.0001)     ;
(PID.TID 0000.0001) PTRACERS_useKPP = /* apply KPP scheme */
(PID.TID 0000.0001)                   F
(PID.TID 0000.0001)     ;
(PID.TID 0000.0001) PTRACERS_ref = /* Reference vertical profile */
(PID.TID 0000.0001)    35 @  0.000000000000000E+00              /* K =  1: 35 */
(PID.TID 0000.0001)     ;
(PID.TID 0000.0001) PTRACERS_EvPrRn =/* tracer conc. in Evap. & Rain */
(PID.TID 0000.0001)                 1.234567000000000E+05
(PID.TID 0000.0001)     ;
(PID.TID 0000.0001)  -----------------------------------
(PID.TID 0000.0001)  tracer number :   66
(PID.TID 0000.0001) PTRACERS_names = /* Tracer short name */
(PID.TID 0000.0001)               'c48'
(PID.TID 0000.0001)     ;
(PID.TID 0000.0001) PTRACERS_long_names = /* Tracer long name */
(PID.TID 0000.0001)               ''
(PID.TID 0000.0001)     ;
(PID.TID 0000.0001) PTRACERS_ioLabel = /* tracer IO Label */
(PID.TID 0000.0001)               '66'
(PID.TID 0000.0001)     ;
(PID.TID 0000.0001) PTRACERS_advScheme = /* Advection Scheme */
(PID.TID 0000.0001)                      33
(PID.TID 0000.0001)     ;
(PID.TID 0000.0001) PTRACERS_SOM_Advection = /* tracer uses SOM advection scheme */
(PID.TID 0000.0001)                   F
(PID.TID 0000.0001)     ;
(PID.TID 0000.0001) PTRACERS_ImplVertAdv = /* implicit vert. advection flag */
(PID.TID 0000.0001)                   F
(PID.TID 0000.0001)     ;
(PID.TID 0000.0001) PTRACERS_diffKh = /* Laplacian Diffusivity */
(PID.TID 0000.0001)                 0.000000000000000E+00
(PID.TID 0000.0001)     ;
(PID.TID 0000.0001) PTRACERS_diffK4 = /* Biharmonic Diffusivity */
(PID.TID 0000.0001)                 0.000000000000000E+00
(PID.TID 0000.0001)     ;
(PID.TID 0000.0001) PTRACERS_diffKrNr = /* Vertical Diffusivity */
(PID.TID 0000.0001)    35 @  1.000000000000000E-05              /* K =  1: 35 */
(PID.TID 0000.0001)     ;
(PID.TID 0000.0001) PTRACERS_useGMRedi = /* apply GM-Redi */
(PID.TID 0000.0001)                   F
(PID.TID 0000.0001)     ;
(PID.TID 0000.0001) PTRACERS_useDWNSLP = /* apply DOWN-SLOPE Flow */
(PID.TID 0000.0001)                   F
(PID.TID 0000.0001)     ;
(PID.TID 0000.0001) PTRACERS_useKPP = /* apply KPP scheme */
(PID.TID 0000.0001)                   F
(PID.TID 0000.0001)     ;
(PID.TID 0000.0001) PTRACERS_ref = /* Reference vertical profile */
(PID.TID 0000.0001)    35 @  0.000000000000000E+00              /* K =  1: 35 */
(PID.TID 0000.0001)     ;
(PID.TID 0000.0001) PTRACERS_EvPrRn =/* tracer conc. in Evap. & Rain */
(PID.TID 0000.0001)                 1.234567000000000E+05
(PID.TID 0000.0001)     ;
(PID.TID 0000.0001)  -----------------------------------
(PID.TID 0000.0001)  tracer number :   67
(PID.TID 0000.0001) PTRACERS_names = /* Tracer short name */
(PID.TID 0000.0001)               'c49'
(PID.TID 0000.0001)     ;
(PID.TID 0000.0001) PTRACERS_long_names = /* Tracer long name */
(PID.TID 0000.0001)               ''
(PID.TID 0000.0001)     ;
(PID.TID 0000.0001) PTRACERS_ioLabel = /* tracer IO Label */
(PID.TID 0000.0001)               '67'
(PID.TID 0000.0001)     ;
(PID.TID 0000.0001) PTRACERS_advScheme = /* Advection Scheme */
(PID.TID 0000.0001)                      33
(PID.TID 0000.0001)     ;
(PID.TID 0000.0001) PTRACERS_SOM_Advection = /* tracer uses SOM advection scheme */
(PID.TID 0000.0001)                   F
(PID.TID 0000.0001)     ;
(PID.TID 0000.0001) PTRACERS_ImplVertAdv = /* implicit vert. advection flag */
(PID.TID 0000.0001)                   F
(PID.TID 0000.0001)     ;
(PID.TID 0000.0001) PTRACERS_diffKh = /* Laplacian Diffusivity */
(PID.TID 0000.0001)                 0.000000000000000E+00
(PID.TID 0000.0001)     ;
(PID.TID 0000.0001) PTRACERS_diffK4 = /* Biharmonic Diffusivity */
(PID.TID 0000.0001)                 0.000000000000000E+00
(PID.TID 0000.0001)     ;
(PID.TID 0000.0001) PTRACERS_diffKrNr = /* Vertical Diffusivity */
(PID.TID 0000.0001)    35 @  1.000000000000000E-05              /* K =  1: 35 */
(PID.TID 0000.0001)     ;
(PID.TID 0000.0001) PTRACERS_useGMRedi = /* apply GM-Redi */
(PID.TID 0000.0001)                   F
(PID.TID 0000.0001)     ;
(PID.TID 0000.0001) PTRACERS_useDWNSLP = /* apply DOWN-SLOPE Flow */
(PID.TID 0000.0001)                   F
(PID.TID 0000.0001)     ;
(PID.TID 0000.0001) PTRACERS_useKPP = /* apply KPP scheme */
(PID.TID 0000.0001)                   F
(PID.TID 0000.0001)     ;
(PID.TID 0000.0001) PTRACERS_ref = /* Reference vertical profile */
(PID.TID 0000.0001)    35 @  0.000000000000000E+00              /* K =  1: 35 */
(PID.TID 0000.0001)     ;
(PID.TID 0000.0001) PTRACERS_EvPrRn =/* tracer conc. in Evap. & Rain */
(PID.TID 0000.0001)                 1.234567000000000E+05
(PID.TID 0000.0001)     ;
(PID.TID 0000.0001)  -----------------------------------
(PID.TID 0000.0001)  tracer number :   68
(PID.TID 0000.0001) PTRACERS_names = /* Tracer short name */
(PID.TID 0000.0001)               'c50'
(PID.TID 0000.0001)     ;
(PID.TID 0000.0001) PTRACERS_long_names = /* Tracer long name */
(PID.TID 0000.0001)               ''
(PID.TID 0000.0001)     ;
(PID.TID 0000.0001) PTRACERS_ioLabel = /* tracer IO Label */
(PID.TID 0000.0001)               '68'
(PID.TID 0000.0001)     ;
(PID.TID 0000.0001) PTRACERS_advScheme = /* Advection Scheme */
(PID.TID 0000.0001)                      33
(PID.TID 0000.0001)     ;
(PID.TID 0000.0001) PTRACERS_SOM_Advection = /* tracer uses SOM advection scheme */
(PID.TID 0000.0001)                   F
(PID.TID 0000.0001)     ;
(PID.TID 0000.0001) PTRACERS_ImplVertAdv = /* implicit vert. advection flag */
(PID.TID 0000.0001)                   F
(PID.TID 0000.0001)     ;
(PID.TID 0000.0001) PTRACERS_diffKh = /* Laplacian Diffusivity */
(PID.TID 0000.0001)                 0.000000000000000E+00
(PID.TID 0000.0001)     ;
(PID.TID 0000.0001) PTRACERS_diffK4 = /* Biharmonic Diffusivity */
(PID.TID 0000.0001)                 0.000000000000000E+00
(PID.TID 0000.0001)     ;
(PID.TID 0000.0001) PTRACERS_diffKrNr = /* Vertical Diffusivity */
(PID.TID 0000.0001)    35 @  1.000000000000000E-05              /* K =  1: 35 */
(PID.TID 0000.0001)     ;
(PID.TID 0000.0001) PTRACERS_useGMRedi = /* apply GM-Redi */
(PID.TID 0000.0001)                   F
(PID.TID 0000.0001)     ;
(PID.TID 0000.0001) PTRACERS_useDWNSLP = /* apply DOWN-SLOPE Flow */
(PID.TID 0000.0001)                   F
(PID.TID 0000.0001)     ;
(PID.TID 0000.0001) PTRACERS_useKPP = /* apply KPP scheme */
(PID.TID 0000.0001)                   F
(PID.TID 0000.0001)     ;
(PID.TID 0000.0001) PTRACERS_ref = /* Reference vertical profile */
(PID.TID 0000.0001)    35 @  0.000000000000000E+00              /* K =  1: 35 */
(PID.TID 0000.0001)     ;
(PID.TID 0000.0001) PTRACERS_EvPrRn =/* tracer conc. in Evap. & Rain */
(PID.TID 0000.0001)                 1.234567000000000E+05
(PID.TID 0000.0001)     ;
(PID.TID 0000.0001)  -----------------------------------
(PID.TID 0000.0001)  tracer number :   69
(PID.TID 0000.0001) PTRACERS_names = /* Tracer short name */
(PID.TID 0000.0001)               'c51'
(PID.TID 0000.0001)     ;
(PID.TID 0000.0001) PTRACERS_long_names = /* Tracer long name */
(PID.TID 0000.0001)               ''
(PID.TID 0000.0001)     ;
(PID.TID 0000.0001) PTRACERS_ioLabel = /* tracer IO Label */
(PID.TID 0000.0001)               '69'
(PID.TID 0000.0001)     ;
(PID.TID 0000.0001) PTRACERS_advScheme = /* Advection Scheme */
(PID.TID 0000.0001)                      33
(PID.TID 0000.0001)     ;
(PID.TID 0000.0001) PTRACERS_SOM_Advection = /* tracer uses SOM advection scheme */
(PID.TID 0000.0001)                   F
(PID.TID 0000.0001)     ;
(PID.TID 0000.0001) PTRACERS_ImplVertAdv = /* implicit vert. advection flag */
(PID.TID 0000.0001)                   F
(PID.TID 0000.0001)     ;
(PID.TID 0000.0001) PTRACERS_diffKh = /* Laplacian Diffusivity */
(PID.TID 0000.0001)                 0.000000000000000E+00
(PID.TID 0000.0001)     ;
(PID.TID 0000.0001) PTRACERS_diffK4 = /* Biharmonic Diffusivity */
(PID.TID 0000.0001)                 0.000000000000000E+00
(PID.TID 0000.0001)     ;
(PID.TID 0000.0001) PTRACERS_diffKrNr = /* Vertical Diffusivity */
(PID.TID 0000.0001)    35 @  1.000000000000000E-05              /* K =  1: 35 */
(PID.TID 0000.0001)     ;
(PID.TID 0000.0001) PTRACERS_useGMRedi = /* apply GM-Redi */
(PID.TID 0000.0001)                   F
(PID.TID 0000.0001)     ;
(PID.TID 0000.0001) PTRACERS_useDWNSLP = /* apply DOWN-SLOPE Flow */
(PID.TID 0000.0001)                   F
(PID.TID 0000.0001)     ;
(PID.TID 0000.0001) PTRACERS_useKPP = /* apply KPP scheme */
(PID.TID 0000.0001)                   F
(PID.TID 0000.0001)     ;
(PID.TID 0000.0001) PTRACERS_ref = /* Reference vertical profile */
(PID.TID 0000.0001)    35 @  0.000000000000000E+00              /* K =  1: 35 */
(PID.TID 0000.0001)     ;
(PID.TID 0000.0001) PTRACERS_EvPrRn =/* tracer conc. in Evap. & Rain */
(PID.TID 0000.0001)                 1.234567000000000E+05
(PID.TID 0000.0001)     ;
(PID.TID 0000.0001)  -----------------------------------
(PID.TID 0000.0001)  tracer number :   70
(PID.TID 0000.0001) PTRACERS_names = /* Tracer short name */
(PID.TID 0000.0001)               'c52'
(PID.TID 0000.0001)     ;
(PID.TID 0000.0001) PTRACERS_long_names = /* Tracer long name */
(PID.TID 0000.0001)               ''
(PID.TID 0000.0001)     ;
(PID.TID 0000.0001) PTRACERS_ioLabel = /* tracer IO Label */
(PID.TID 0000.0001)               '70'
(PID.TID 0000.0001)     ;
(PID.TID 0000.0001) PTRACERS_advScheme = /* Advection Scheme */
(PID.TID 0000.0001)                      33
(PID.TID 0000.0001)     ;
(PID.TID 0000.0001) PTRACERS_SOM_Advection = /* tracer uses SOM advection scheme */
(PID.TID 0000.0001)                   F
(PID.TID 0000.0001)     ;
(PID.TID 0000.0001) PTRACERS_ImplVertAdv = /* implicit vert. advection flag */
(PID.TID 0000.0001)                   F
(PID.TID 0000.0001)     ;
(PID.TID 0000.0001) PTRACERS_diffKh = /* Laplacian Diffusivity */
(PID.TID 0000.0001)                 0.000000000000000E+00
(PID.TID 0000.0001)     ;
(PID.TID 0000.0001) PTRACERS_diffK4 = /* Biharmonic Diffusivity */
(PID.TID 0000.0001)                 0.000000000000000E+00
(PID.TID 0000.0001)     ;
(PID.TID 0000.0001) PTRACERS_diffKrNr = /* Vertical Diffusivity */
(PID.TID 0000.0001)    35 @  1.000000000000000E-05              /* K =  1: 35 */
(PID.TID 0000.0001)     ;
(PID.TID 0000.0001) PTRACERS_useGMRedi = /* apply GM-Redi */
(PID.TID 0000.0001)                   F
(PID.TID 0000.0001)     ;
(PID.TID 0000.0001) PTRACERS_useDWNSLP = /* apply DOWN-SLOPE Flow */
(PID.TID 0000.0001)                   F
(PID.TID 0000.0001)     ;
(PID.TID 0000.0001) PTRACERS_useKPP = /* apply KPP scheme */
(PID.TID 0000.0001)                   F
(PID.TID 0000.0001)     ;
(PID.TID 0000.0001) PTRACERS_ref = /* Reference vertical profile */
(PID.TID 0000.0001)    35 @  0.000000000000000E+00              /* K =  1: 35 */
(PID.TID 0000.0001)     ;
(PID.TID 0000.0001) PTRACERS_EvPrRn =/* tracer conc. in Evap. & Rain */
(PID.TID 0000.0001)                 1.234567000000000E+05
(PID.TID 0000.0001)     ;
(PID.TID 0000.0001)  -----------------------------------
(PID.TID 0000.0001)  tracer number :   71
(PID.TID 0000.0001) PTRACERS_names = /* Tracer short name */
(PID.TID 0000.0001)               'c53'
(PID.TID 0000.0001)     ;
(PID.TID 0000.0001) PTRACERS_long_names = /* Tracer long name */
(PID.TID 0000.0001)               ''
(PID.TID 0000.0001)     ;
(PID.TID 0000.0001) PTRACERS_ioLabel = /* tracer IO Label */
(PID.TID 0000.0001)               '71'
(PID.TID 0000.0001)     ;
(PID.TID 0000.0001) PTRACERS_advScheme = /* Advection Scheme */
(PID.TID 0000.0001)                      33
(PID.TID 0000.0001)     ;
(PID.TID 0000.0001) PTRACERS_SOM_Advection = /* tracer uses SOM advection scheme */
(PID.TID 0000.0001)                   F
(PID.TID 0000.0001)     ;
(PID.TID 0000.0001) PTRACERS_ImplVertAdv = /* implicit vert. advection flag */
(PID.TID 0000.0001)                   F
(PID.TID 0000.0001)     ;
(PID.TID 0000.0001) PTRACERS_diffKh = /* Laplacian Diffusivity */
(PID.TID 0000.0001)                 0.000000000000000E+00
(PID.TID 0000.0001)     ;
(PID.TID 0000.0001) PTRACERS_diffK4 = /* Biharmonic Diffusivity */
(PID.TID 0000.0001)                 0.000000000000000E+00
(PID.TID 0000.0001)     ;
(PID.TID 0000.0001) PTRACERS_diffKrNr = /* Vertical Diffusivity */
(PID.TID 0000.0001)    35 @  1.000000000000000E-05              /* K =  1: 35 */
(PID.TID 0000.0001)     ;
(PID.TID 0000.0001) PTRACERS_useGMRedi = /* apply GM-Redi */
(PID.TID 0000.0001)                   F
(PID.TID 0000.0001)     ;
(PID.TID 0000.0001) PTRACERS_useDWNSLP = /* apply DOWN-SLOPE Flow */
(PID.TID 0000.0001)                   F
(PID.TID 0000.0001)     ;
(PID.TID 0000.0001) PTRACERS_useKPP = /* apply KPP scheme */
(PID.TID 0000.0001)                   F
(PID.TID 0000.0001)     ;
(PID.TID 0000.0001) PTRACERS_ref = /* Reference vertical profile */
(PID.TID 0000.0001)    35 @  0.000000000000000E+00              /* K =  1: 35 */
(PID.TID 0000.0001)     ;
(PID.TID 0000.0001) PTRACERS_EvPrRn =/* tracer conc. in Evap. & Rain */
(PID.TID 0000.0001)                 1.234567000000000E+05
(PID.TID 0000.0001)     ;
(PID.TID 0000.0001)  -----------------------------------
(PID.TID 0000.0001)  tracer number :   72
(PID.TID 0000.0001) PTRACERS_names = /* Tracer short name */
(PID.TID 0000.0001)               'c54'
(PID.TID 0000.0001)     ;
(PID.TID 0000.0001) PTRACERS_long_names = /* Tracer long name */
(PID.TID 0000.0001)               ''
(PID.TID 0000.0001)     ;
(PID.TID 0000.0001) PTRACERS_ioLabel = /* tracer IO Label */
(PID.TID 0000.0001)               '72'
(PID.TID 0000.0001)     ;
(PID.TID 0000.0001) PTRACERS_advScheme = /* Advection Scheme */
(PID.TID 0000.0001)                      33
(PID.TID 0000.0001)     ;
(PID.TID 0000.0001) PTRACERS_SOM_Advection = /* tracer uses SOM advection scheme */
(PID.TID 0000.0001)                   F
(PID.TID 0000.0001)     ;
(PID.TID 0000.0001) PTRACERS_ImplVertAdv = /* implicit vert. advection flag */
(PID.TID 0000.0001)                   F
(PID.TID 0000.0001)     ;
(PID.TID 0000.0001) PTRACERS_diffKh = /* Laplacian Diffusivity */
(PID.TID 0000.0001)                 0.000000000000000E+00
(PID.TID 0000.0001)     ;
(PID.TID 0000.0001) PTRACERS_diffK4 = /* Biharmonic Diffusivity */
(PID.TID 0000.0001)                 0.000000000000000E+00
(PID.TID 0000.0001)     ;
(PID.TID 0000.0001) PTRACERS_diffKrNr = /* Vertical Diffusivity */
(PID.TID 0000.0001)    35 @  1.000000000000000E-05              /* K =  1: 35 */
(PID.TID 0000.0001)     ;
(PID.TID 0000.0001) PTRACERS_useGMRedi = /* apply GM-Redi */
(PID.TID 0000.0001)                   F
(PID.TID 0000.0001)     ;
(PID.TID 0000.0001) PTRACERS_useDWNSLP = /* apply DOWN-SLOPE Flow */
(PID.TID 0000.0001)                   F
(PID.TID 0000.0001)     ;
(PID.TID 0000.0001) PTRACERS_useKPP = /* apply KPP scheme */
(PID.TID 0000.0001)                   F
(PID.TID 0000.0001)     ;
(PID.TID 0000.0001) PTRACERS_ref = /* Reference vertical profile */
(PID.TID 0000.0001)    35 @  0.000000000000000E+00              /* K =  1: 35 */
(PID.TID 0000.0001)     ;
(PID.TID 0000.0001) PTRACERS_EvPrRn =/* tracer conc. in Evap. & Rain */
(PID.TID 0000.0001)                 1.234567000000000E+05
(PID.TID 0000.0001)     ;
(PID.TID 0000.0001)  -----------------------------------
(PID.TID 0000.0001)  tracer number :   73
(PID.TID 0000.0001) PTRACERS_names = /* Tracer short name */
(PID.TID 0000.0001)               'c55'
(PID.TID 0000.0001)     ;
(PID.TID 0000.0001) PTRACERS_long_names = /* Tracer long name */
(PID.TID 0000.0001)               ''
(PID.TID 0000.0001)     ;
(PID.TID 0000.0001) PTRACERS_ioLabel = /* tracer IO Label */
(PID.TID 0000.0001)               '73'
(PID.TID 0000.0001)     ;
(PID.TID 0000.0001) PTRACERS_advScheme = /* Advection Scheme */
(PID.TID 0000.0001)                      33
(PID.TID 0000.0001)     ;
(PID.TID 0000.0001) PTRACERS_SOM_Advection = /* tracer uses SOM advection scheme */
(PID.TID 0000.0001)                   F
(PID.TID 0000.0001)     ;
(PID.TID 0000.0001) PTRACERS_ImplVertAdv = /* implicit vert. advection flag */
(PID.TID 0000.0001)                   F
(PID.TID 0000.0001)     ;
(PID.TID 0000.0001) PTRACERS_diffKh = /* Laplacian Diffusivity */
(PID.TID 0000.0001)                 0.000000000000000E+00
(PID.TID 0000.0001)     ;
(PID.TID 0000.0001) PTRACERS_diffK4 = /* Biharmonic Diffusivity */
(PID.TID 0000.0001)                 0.000000000000000E+00
(PID.TID 0000.0001)     ;
(PID.TID 0000.0001) PTRACERS_diffKrNr = /* Vertical Diffusivity */
(PID.TID 0000.0001)    35 @  1.000000000000000E-05              /* K =  1: 35 */
(PID.TID 0000.0001)     ;
(PID.TID 0000.0001) PTRACERS_useGMRedi = /* apply GM-Redi */
(PID.TID 0000.0001)                   F
(PID.TID 0000.0001)     ;
(PID.TID 0000.0001) PTRACERS_useDWNSLP = /* apply DOWN-SLOPE Flow */
(PID.TID 0000.0001)                   F
(PID.TID 0000.0001)     ;
(PID.TID 0000.0001) PTRACERS_useKPP = /* apply KPP scheme */
(PID.TID 0000.0001)                   F
(PID.TID 0000.0001)     ;
(PID.TID 0000.0001) PTRACERS_ref = /* Reference vertical profile */
(PID.TID 0000.0001)    35 @  0.000000000000000E+00              /* K =  1: 35 */
(PID.TID 0000.0001)     ;
(PID.TID 0000.0001) PTRACERS_EvPrRn =/* tracer conc. in Evap. & Rain */
(PID.TID 0000.0001)                 1.234567000000000E+05
(PID.TID 0000.0001)     ;
(PID.TID 0000.0001)  -----------------------------------
(PID.TID 0000.0001)  tracer number :   74
(PID.TID 0000.0001) PTRACERS_names = /* Tracer short name */
(PID.TID 0000.0001)               'c56'
(PID.TID 0000.0001)     ;
(PID.TID 0000.0001) PTRACERS_long_names = /* Tracer long name */
(PID.TID 0000.0001)               ''
(PID.TID 0000.0001)     ;
(PID.TID 0000.0001) PTRACERS_ioLabel = /* tracer IO Label */
(PID.TID 0000.0001)               '74'
(PID.TID 0000.0001)     ;
(PID.TID 0000.0001) PTRACERS_advScheme = /* Advection Scheme */
(PID.TID 0000.0001)                      33
(PID.TID 0000.0001)     ;
(PID.TID 0000.0001) PTRACERS_SOM_Advection = /* tracer uses SOM advection scheme */
(PID.TID 0000.0001)                   F
(PID.TID 0000.0001)     ;
(PID.TID 0000.0001) PTRACERS_ImplVertAdv = /* implicit vert. advection flag */
(PID.TID 0000.0001)                   F
(PID.TID 0000.0001)     ;
(PID.TID 0000.0001) PTRACERS_diffKh = /* Laplacian Diffusivity */
(PID.TID 0000.0001)                 0.000000000000000E+00
(PID.TID 0000.0001)     ;
(PID.TID 0000.0001) PTRACERS_diffK4 = /* Biharmonic Diffusivity */
(PID.TID 0000.0001)                 0.000000000000000E+00
(PID.TID 0000.0001)     ;
(PID.TID 0000.0001) PTRACERS_diffKrNr = /* Vertical Diffusivity */
(PID.TID 0000.0001)    35 @  1.000000000000000E-05              /* K =  1: 35 */
(PID.TID 0000.0001)     ;
(PID.TID 0000.0001) PTRACERS_useGMRedi = /* apply GM-Redi */
(PID.TID 0000.0001)                   F
(PID.TID 0000.0001)     ;
(PID.TID 0000.0001) PTRACERS_useDWNSLP = /* apply DOWN-SLOPE Flow */
(PID.TID 0000.0001)                   F
(PID.TID 0000.0001)     ;
(PID.TID 0000.0001) PTRACERS_useKPP = /* apply KPP scheme */
(PID.TID 0000.0001)                   F
(PID.TID 0000.0001)     ;
(PID.TID 0000.0001) PTRACERS_ref = /* Reference vertical profile */
(PID.TID 0000.0001)    35 @  0.000000000000000E+00              /* K =  1: 35 */
(PID.TID 0000.0001)     ;
(PID.TID 0000.0001) PTRACERS_EvPrRn =/* tracer conc. in Evap. & Rain */
(PID.TID 0000.0001)                 1.234567000000000E+05
(PID.TID 0000.0001)     ;
(PID.TID 0000.0001)  -----------------------------------
(PID.TID 0000.0001)  tracer number :   75
(PID.TID 0000.0001) PTRACERS_names = /* Tracer short name */
(PID.TID 0000.0001)               'c57'
(PID.TID 0000.0001)     ;
(PID.TID 0000.0001) PTRACERS_long_names = /* Tracer long name */
(PID.TID 0000.0001)               ''
(PID.TID 0000.0001)     ;
(PID.TID 0000.0001) PTRACERS_ioLabel = /* tracer IO Label */
(PID.TID 0000.0001)               '75'
(PID.TID 0000.0001)     ;
(PID.TID 0000.0001) PTRACERS_advScheme = /* Advection Scheme */
(PID.TID 0000.0001)                      33
(PID.TID 0000.0001)     ;
(PID.TID 0000.0001) PTRACERS_SOM_Advection = /* tracer uses SOM advection scheme */
(PID.TID 0000.0001)                   F
(PID.TID 0000.0001)     ;
(PID.TID 0000.0001) PTRACERS_ImplVertAdv = /* implicit vert. advection flag */
(PID.TID 0000.0001)                   F
(PID.TID 0000.0001)     ;
(PID.TID 0000.0001) PTRACERS_diffKh = /* Laplacian Diffusivity */
(PID.TID 0000.0001)                 0.000000000000000E+00
(PID.TID 0000.0001)     ;
(PID.TID 0000.0001) PTRACERS_diffK4 = /* Biharmonic Diffusivity */
(PID.TID 0000.0001)                 0.000000000000000E+00
(PID.TID 0000.0001)     ;
(PID.TID 0000.0001) PTRACERS_diffKrNr = /* Vertical Diffusivity */
(PID.TID 0000.0001)    35 @  1.000000000000000E-05              /* K =  1: 35 */
(PID.TID 0000.0001)     ;
(PID.TID 0000.0001) PTRACERS_useGMRedi = /* apply GM-Redi */
(PID.TID 0000.0001)                   F
(PID.TID 0000.0001)     ;
(PID.TID 0000.0001) PTRACERS_useDWNSLP = /* apply DOWN-SLOPE Flow */
(PID.TID 0000.0001)                   F
(PID.TID 0000.0001)     ;
(PID.TID 0000.0001) PTRACERS_useKPP = /* apply KPP scheme */
(PID.TID 0000.0001)                   F
(PID.TID 0000.0001)     ;
(PID.TID 0000.0001) PTRACERS_ref = /* Reference vertical profile */
(PID.TID 0000.0001)    35 @  0.000000000000000E+00              /* K =  1: 35 */
(PID.TID 0000.0001)     ;
(PID.TID 0000.0001) PTRACERS_EvPrRn =/* tracer conc. in Evap. & Rain */
(PID.TID 0000.0001)                 1.234567000000000E+05
(PID.TID 0000.0001)     ;
(PID.TID 0000.0001)  -----------------------------------
(PID.TID 0000.0001)  tracer number :   76
(PID.TID 0000.0001) PTRACERS_names = /* Tracer short name */
(PID.TID 0000.0001)               'c58'
(PID.TID 0000.0001)     ;
(PID.TID 0000.0001) PTRACERS_long_names = /* Tracer long name */
(PID.TID 0000.0001)               ''
(PID.TID 0000.0001)     ;
(PID.TID 0000.0001) PTRACERS_ioLabel = /* tracer IO Label */
(PID.TID 0000.0001)               '76'
(PID.TID 0000.0001)     ;
(PID.TID 0000.0001) PTRACERS_advScheme = /* Advection Scheme */
(PID.TID 0000.0001)                      33
(PID.TID 0000.0001)     ;
(PID.TID 0000.0001) PTRACERS_SOM_Advection = /* tracer uses SOM advection scheme */
(PID.TID 0000.0001)                   F
(PID.TID 0000.0001)     ;
(PID.TID 0000.0001) PTRACERS_ImplVertAdv = /* implicit vert. advection flag */
(PID.TID 0000.0001)                   F
(PID.TID 0000.0001)     ;
(PID.TID 0000.0001) PTRACERS_diffKh = /* Laplacian Diffusivity */
(PID.TID 0000.0001)                 0.000000000000000E+00
(PID.TID 0000.0001)     ;
(PID.TID 0000.0001) PTRACERS_diffK4 = /* Biharmonic Diffusivity */
(PID.TID 0000.0001)                 0.000000000000000E+00
(PID.TID 0000.0001)     ;
(PID.TID 0000.0001) PTRACERS_diffKrNr = /* Vertical Diffusivity */
(PID.TID 0000.0001)    35 @  1.000000000000000E-05              /* K =  1: 35 */
(PID.TID 0000.0001)     ;
(PID.TID 0000.0001) PTRACERS_useGMRedi = /* apply GM-Redi */
(PID.TID 0000.0001)                   F
(PID.TID 0000.0001)     ;
(PID.TID 0000.0001) PTRACERS_useDWNSLP = /* apply DOWN-SLOPE Flow */
(PID.TID 0000.0001)                   F
(PID.TID 0000.0001)     ;
(PID.TID 0000.0001) PTRACERS_useKPP = /* apply KPP scheme */
(PID.TID 0000.0001)                   F
(PID.TID 0000.0001)     ;
(PID.TID 0000.0001) PTRACERS_ref = /* Reference vertical profile */
(PID.TID 0000.0001)    35 @  0.000000000000000E+00              /* K =  1: 35 */
(PID.TID 0000.0001)     ;
(PID.TID 0000.0001) PTRACERS_EvPrRn =/* tracer conc. in Evap. & Rain */
(PID.TID 0000.0001)                 1.234567000000000E+05
(PID.TID 0000.0001)     ;
(PID.TID 0000.0001)  -----------------------------------
(PID.TID 0000.0001)  tracer number :   77
(PID.TID 0000.0001) PTRACERS_names = /* Tracer short name */
(PID.TID 0000.0001)               'c59'
(PID.TID 0000.0001)     ;
(PID.TID 0000.0001) PTRACERS_long_names = /* Tracer long name */
(PID.TID 0000.0001)               ''
(PID.TID 0000.0001)     ;
(PID.TID 0000.0001) PTRACERS_ioLabel = /* tracer IO Label */
(PID.TID 0000.0001)               '77'
(PID.TID 0000.0001)     ;
(PID.TID 0000.0001) PTRACERS_advScheme = /* Advection Scheme */
(PID.TID 0000.0001)                      33
(PID.TID 0000.0001)     ;
(PID.TID 0000.0001) PTRACERS_SOM_Advection = /* tracer uses SOM advection scheme */
(PID.TID 0000.0001)                   F
(PID.TID 0000.0001)     ;
(PID.TID 0000.0001) PTRACERS_ImplVertAdv = /* implicit vert. advection flag */
(PID.TID 0000.0001)                   F
(PID.TID 0000.0001)     ;
(PID.TID 0000.0001) PTRACERS_diffKh = /* Laplacian Diffusivity */
(PID.TID 0000.0001)                 0.000000000000000E+00
(PID.TID 0000.0001)     ;
(PID.TID 0000.0001) PTRACERS_diffK4 = /* Biharmonic Diffusivity */
(PID.TID 0000.0001)                 0.000000000000000E+00
(PID.TID 0000.0001)     ;
(PID.TID 0000.0001) PTRACERS_diffKrNr = /* Vertical Diffusivity */
(PID.TID 0000.0001)    35 @  1.000000000000000E-05              /* K =  1: 35 */
(PID.TID 0000.0001)     ;
(PID.TID 0000.0001) PTRACERS_useGMRedi = /* apply GM-Redi */
(PID.TID 0000.0001)                   F
(PID.TID 0000.0001)     ;
(PID.TID 0000.0001) PTRACERS_useDWNSLP = /* apply DOWN-SLOPE Flow */
(PID.TID 0000.0001)                   F
(PID.TID 0000.0001)     ;
(PID.TID 0000.0001) PTRACERS_useKPP = /* apply KPP scheme */
(PID.TID 0000.0001)                   F
(PID.TID 0000.0001)     ;
(PID.TID 0000.0001) PTRACERS_ref = /* Reference vertical profile */
(PID.TID 0000.0001)    35 @  0.000000000000000E+00              /* K =  1: 35 */
(PID.TID 0000.0001)     ;
(PID.TID 0000.0001) PTRACERS_EvPrRn =/* tracer conc. in Evap. & Rain */
(PID.TID 0000.0001)                 1.234567000000000E+05
(PID.TID 0000.0001)     ;
(PID.TID 0000.0001)  -----------------------------------
(PID.TID 0000.0001)  tracer number :   78
(PID.TID 0000.0001) PTRACERS_names = /* Tracer short name */
(PID.TID 0000.0001)               'c60'
(PID.TID 0000.0001)     ;
(PID.TID 0000.0001) PTRACERS_long_names = /* Tracer long name */
(PID.TID 0000.0001)               ''
(PID.TID 0000.0001)     ;
(PID.TID 0000.0001) PTRACERS_ioLabel = /* tracer IO Label */
(PID.TID 0000.0001)               '78'
(PID.TID 0000.0001)     ;
(PID.TID 0000.0001) PTRACERS_advScheme = /* Advection Scheme */
(PID.TID 0000.0001)                      33
(PID.TID 0000.0001)     ;
(PID.TID 0000.0001) PTRACERS_SOM_Advection = /* tracer uses SOM advection scheme */
(PID.TID 0000.0001)                   F
(PID.TID 0000.0001)     ;
(PID.TID 0000.0001) PTRACERS_ImplVertAdv = /* implicit vert. advection flag */
(PID.TID 0000.0001)                   F
(PID.TID 0000.0001)     ;
(PID.TID 0000.0001) PTRACERS_diffKh = /* Laplacian Diffusivity */
(PID.TID 0000.0001)                 0.000000000000000E+00
(PID.TID 0000.0001)     ;
(PID.TID 0000.0001) PTRACERS_diffK4 = /* Biharmonic Diffusivity */
(PID.TID 0000.0001)                 0.000000000000000E+00
(PID.TID 0000.0001)     ;
(PID.TID 0000.0001) PTRACERS_diffKrNr = /* Vertical Diffusivity */
(PID.TID 0000.0001)    35 @  1.000000000000000E-05              /* K =  1: 35 */
(PID.TID 0000.0001)     ;
(PID.TID 0000.0001) PTRACERS_useGMRedi = /* apply GM-Redi */
(PID.TID 0000.0001)                   F
(PID.TID 0000.0001)     ;
(PID.TID 0000.0001) PTRACERS_useDWNSLP = /* apply DOWN-SLOPE Flow */
(PID.TID 0000.0001)                   F
(PID.TID 0000.0001)     ;
(PID.TID 0000.0001) PTRACERS_useKPP = /* apply KPP scheme */
(PID.TID 0000.0001)                   F
(PID.TID 0000.0001)     ;
(PID.TID 0000.0001) PTRACERS_ref = /* Reference vertical profile */
(PID.TID 0000.0001)    35 @  0.000000000000000E+00              /* K =  1: 35 */
(PID.TID 0000.0001)     ;
(PID.TID 0000.0001) PTRACERS_EvPrRn =/* tracer conc. in Evap. & Rain */
(PID.TID 0000.0001)                 1.234567000000000E+05
(PID.TID 0000.0001)     ;
(PID.TID 0000.0001)  -----------------------------------
(PID.TID 0000.0001)  tracer number :   79
(PID.TID 0000.0001) PTRACERS_names = /* Tracer short name */
(PID.TID 0000.0001)               'c61'
(PID.TID 0000.0001)     ;
(PID.TID 0000.0001) PTRACERS_long_names = /* Tracer long name */
(PID.TID 0000.0001)               ''
(PID.TID 0000.0001)     ;
(PID.TID 0000.0001) PTRACERS_ioLabel = /* tracer IO Label */
(PID.TID 0000.0001)               '79'
(PID.TID 0000.0001)     ;
(PID.TID 0000.0001) PTRACERS_advScheme = /* Advection Scheme */
(PID.TID 0000.0001)                      33
(PID.TID 0000.0001)     ;
(PID.TID 0000.0001) PTRACERS_SOM_Advection = /* tracer uses SOM advection scheme */
(PID.TID 0000.0001)                   F
(PID.TID 0000.0001)     ;
(PID.TID 0000.0001) PTRACERS_ImplVertAdv = /* implicit vert. advection flag */
(PID.TID 0000.0001)                   F
(PID.TID 0000.0001)     ;
(PID.TID 0000.0001) PTRACERS_diffKh = /* Laplacian Diffusivity */
(PID.TID 0000.0001)                 0.000000000000000E+00
(PID.TID 0000.0001)     ;
(PID.TID 0000.0001) PTRACERS_diffK4 = /* Biharmonic Diffusivity */
(PID.TID 0000.0001)                 0.000000000000000E+00
(PID.TID 0000.0001)     ;
(PID.TID 0000.0001) PTRACERS_diffKrNr = /* Vertical Diffusivity */
(PID.TID 0000.0001)    35 @  1.000000000000000E-05              /* K =  1: 35 */
(PID.TID 0000.0001)     ;
(PID.TID 0000.0001) PTRACERS_useGMRedi = /* apply GM-Redi */
(PID.TID 0000.0001)                   F
(PID.TID 0000.0001)     ;
(PID.TID 0000.0001) PTRACERS_useDWNSLP = /* apply DOWN-SLOPE Flow */
(PID.TID 0000.0001)                   F
(PID.TID 0000.0001)     ;
(PID.TID 0000.0001) PTRACERS_useKPP = /* apply KPP scheme */
(PID.TID 0000.0001)                   F
(PID.TID 0000.0001)     ;
(PID.TID 0000.0001) PTRACERS_ref = /* Reference vertical profile */
(PID.TID 0000.0001)    35 @  0.000000000000000E+00              /* K =  1: 35 */
(PID.TID 0000.0001)     ;
(PID.TID 0000.0001) PTRACERS_EvPrRn =/* tracer conc. in Evap. & Rain */
(PID.TID 0000.0001)                 1.234567000000000E+05
(PID.TID 0000.0001)     ;
(PID.TID 0000.0001)  -----------------------------------
(PID.TID 0000.0001)  tracer number :   80
(PID.TID 0000.0001) PTRACERS_names = /* Tracer short name */
(PID.TID 0000.0001)               'c62'
(PID.TID 0000.0001)     ;
(PID.TID 0000.0001) PTRACERS_long_names = /* Tracer long name */
(PID.TID 0000.0001)               ''
(PID.TID 0000.0001)     ;
(PID.TID 0000.0001) PTRACERS_ioLabel = /* tracer IO Label */
(PID.TID 0000.0001)               '80'
(PID.TID 0000.0001)     ;
(PID.TID 0000.0001) PTRACERS_advScheme = /* Advection Scheme */
(PID.TID 0000.0001)                      33
(PID.TID 0000.0001)     ;
(PID.TID 0000.0001) PTRACERS_SOM_Advection = /* tracer uses SOM advection scheme */
(PID.TID 0000.0001)                   F
(PID.TID 0000.0001)     ;
(PID.TID 0000.0001) PTRACERS_ImplVertAdv = /* implicit vert. advection flag */
(PID.TID 0000.0001)                   F
(PID.TID 0000.0001)     ;
(PID.TID 0000.0001) PTRACERS_diffKh = /* Laplacian Diffusivity */
(PID.TID 0000.0001)                 0.000000000000000E+00
(PID.TID 0000.0001)     ;
(PID.TID 0000.0001) PTRACERS_diffK4 = /* Biharmonic Diffusivity */
(PID.TID 0000.0001)                 0.000000000000000E+00
(PID.TID 0000.0001)     ;
(PID.TID 0000.0001) PTRACERS_diffKrNr = /* Vertical Diffusivity */
(PID.TID 0000.0001)    35 @  1.000000000000000E-05              /* K =  1: 35 */
(PID.TID 0000.0001)     ;
(PID.TID 0000.0001) PTRACERS_useGMRedi = /* apply GM-Redi */
(PID.TID 0000.0001)                   F
(PID.TID 0000.0001)     ;
(PID.TID 0000.0001) PTRACERS_useDWNSLP = /* apply DOWN-SLOPE Flow */
(PID.TID 0000.0001)                   F
(PID.TID 0000.0001)     ;
(PID.TID 0000.0001) PTRACERS_useKPP = /* apply KPP scheme */
(PID.TID 0000.0001)                   F
(PID.TID 0000.0001)     ;
(PID.TID 0000.0001) PTRACERS_ref = /* Reference vertical profile */
(PID.TID 0000.0001)    35 @  0.000000000000000E+00              /* K =  1: 35 */
(PID.TID 0000.0001)     ;
(PID.TID 0000.0001) PTRACERS_EvPrRn =/* tracer conc. in Evap. & Rain */
(PID.TID 0000.0001)                 1.234567000000000E+05
(PID.TID 0000.0001)     ;
(PID.TID 0000.0001)  -----------------------------------
(PID.TID 0000.0001)  tracer number :   81
(PID.TID 0000.0001) PTRACERS_names = /* Tracer short name */
(PID.TID 0000.0001)               'c63'
(PID.TID 0000.0001)     ;
(PID.TID 0000.0001) PTRACERS_long_names = /* Tracer long name */
(PID.TID 0000.0001)               ''
(PID.TID 0000.0001)     ;
(PID.TID 0000.0001) PTRACERS_ioLabel = /* tracer IO Label */
(PID.TID 0000.0001)               '81'
(PID.TID 0000.0001)     ;
(PID.TID 0000.0001) PTRACERS_advScheme = /* Advection Scheme */
(PID.TID 0000.0001)                      33
(PID.TID 0000.0001)     ;
(PID.TID 0000.0001) PTRACERS_SOM_Advection = /* tracer uses SOM advection scheme */
(PID.TID 0000.0001)                   F
(PID.TID 0000.0001)     ;
(PID.TID 0000.0001) PTRACERS_ImplVertAdv = /* implicit vert. advection flag */
(PID.TID 0000.0001)                   F
(PID.TID 0000.0001)     ;
(PID.TID 0000.0001) PTRACERS_diffKh = /* Laplacian Diffusivity */
(PID.TID 0000.0001)                 0.000000000000000E+00
(PID.TID 0000.0001)     ;
(PID.TID 0000.0001) PTRACERS_diffK4 = /* Biharmonic Diffusivity */
(PID.TID 0000.0001)                 0.000000000000000E+00
(PID.TID 0000.0001)     ;
(PID.TID 0000.0001) PTRACERS_diffKrNr = /* Vertical Diffusivity */
(PID.TID 0000.0001)    35 @  1.000000000000000E-05              /* K =  1: 35 */
(PID.TID 0000.0001)     ;
(PID.TID 0000.0001) PTRACERS_useGMRedi = /* apply GM-Redi */
(PID.TID 0000.0001)                   F
(PID.TID 0000.0001)     ;
(PID.TID 0000.0001) PTRACERS_useDWNSLP = /* apply DOWN-SLOPE Flow */
(PID.TID 0000.0001)                   F
(PID.TID 0000.0001)     ;
(PID.TID 0000.0001) PTRACERS_useKPP = /* apply KPP scheme */
(PID.TID 0000.0001)                   F
(PID.TID 0000.0001)     ;
(PID.TID 0000.0001) PTRACERS_ref = /* Reference vertical profile */
(PID.TID 0000.0001)    35 @  0.000000000000000E+00              /* K =  1: 35 */
(PID.TID 0000.0001)     ;
(PID.TID 0000.0001) PTRACERS_EvPrRn =/* tracer conc. in Evap. & Rain */
(PID.TID 0000.0001)                 1.234567000000000E+05
(PID.TID 0000.0001)     ;
(PID.TID 0000.0001)  -----------------------------------
(PID.TID 0000.0001)  tracer number :   82
(PID.TID 0000.0001) PTRACERS_names = /* Tracer short name */
(PID.TID 0000.0001)               'c64'
(PID.TID 0000.0001)     ;
(PID.TID 0000.0001) PTRACERS_long_names = /* Tracer long name */
(PID.TID 0000.0001)               ''
(PID.TID 0000.0001)     ;
(PID.TID 0000.0001) PTRACERS_ioLabel = /* tracer IO Label */
(PID.TID 0000.0001)               '82'
(PID.TID 0000.0001)     ;
(PID.TID 0000.0001) PTRACERS_advScheme = /* Advection Scheme */
(PID.TID 0000.0001)                      33
(PID.TID 0000.0001)     ;
(PID.TID 0000.0001) PTRACERS_SOM_Advection = /* tracer uses SOM advection scheme */
(PID.TID 0000.0001)                   F
(PID.TID 0000.0001)     ;
(PID.TID 0000.0001) PTRACERS_ImplVertAdv = /* implicit vert. advection flag */
(PID.TID 0000.0001)                   F
(PID.TID 0000.0001)     ;
(PID.TID 0000.0001) PTRACERS_diffKh = /* Laplacian Diffusivity */
(PID.TID 0000.0001)                 0.000000000000000E+00
(PID.TID 0000.0001)     ;
(PID.TID 0000.0001) PTRACERS_diffK4 = /* Biharmonic Diffusivity */
(PID.TID 0000.0001)                 0.000000000000000E+00
(PID.TID 0000.0001)     ;
(PID.TID 0000.0001) PTRACERS_diffKrNr = /* Vertical Diffusivity */
(PID.TID 0000.0001)    35 @  1.000000000000000E-05              /* K =  1: 35 */
(PID.TID 0000.0001)     ;
(PID.TID 0000.0001) PTRACERS_useGMRedi = /* apply GM-Redi */
(PID.TID 0000.0001)                   F
(PID.TID 0000.0001)     ;
(PID.TID 0000.0001) PTRACERS_useDWNSLP = /* apply DOWN-SLOPE Flow */
(PID.TID 0000.0001)                   F
(PID.TID 0000.0001)     ;
(PID.TID 0000.0001) PTRACERS_useKPP = /* apply KPP scheme */
(PID.TID 0000.0001)                   F
(PID.TID 0000.0001)     ;
(PID.TID 0000.0001) PTRACERS_ref = /* Reference vertical profile */
(PID.TID 0000.0001)    35 @  0.000000000000000E+00              /* K =  1: 35 */
(PID.TID 0000.0001)     ;
(PID.TID 0000.0001) PTRACERS_EvPrRn =/* tracer conc. in Evap. & Rain */
(PID.TID 0000.0001)                 1.234567000000000E+05
(PID.TID 0000.0001)     ;
(PID.TID 0000.0001)  -----------------------------------
(PID.TID 0000.0001)  tracer number :   83
(PID.TID 0000.0001) PTRACERS_names = /* Tracer short name */
(PID.TID 0000.0001)               'c65'
(PID.TID 0000.0001)     ;
(PID.TID 0000.0001) PTRACERS_long_names = /* Tracer long name */
(PID.TID 0000.0001)               ''
(PID.TID 0000.0001)     ;
(PID.TID 0000.0001) PTRACERS_ioLabel = /* tracer IO Label */
(PID.TID 0000.0001)               '83'
(PID.TID 0000.0001)     ;
(PID.TID 0000.0001) PTRACERS_advScheme = /* Advection Scheme */
(PID.TID 0000.0001)                      33
(PID.TID 0000.0001)     ;
(PID.TID 0000.0001) PTRACERS_SOM_Advection = /* tracer uses SOM advection scheme */
(PID.TID 0000.0001)                   F
(PID.TID 0000.0001)     ;
(PID.TID 0000.0001) PTRACERS_ImplVertAdv = /* implicit vert. advection flag */
(PID.TID 0000.0001)                   F
(PID.TID 0000.0001)     ;
(PID.TID 0000.0001) PTRACERS_diffKh = /* Laplacian Diffusivity */
(PID.TID 0000.0001)                 0.000000000000000E+00
(PID.TID 0000.0001)     ;
(PID.TID 0000.0001) PTRACERS_diffK4 = /* Biharmonic Diffusivity */
(PID.TID 0000.0001)                 0.000000000000000E+00
(PID.TID 0000.0001)     ;
(PID.TID 0000.0001) PTRACERS_diffKrNr = /* Vertical Diffusivity */
(PID.TID 0000.0001)    35 @  1.000000000000000E-05              /* K =  1: 35 */
(PID.TID 0000.0001)     ;
(PID.TID 0000.0001) PTRACERS_useGMRedi = /* apply GM-Redi */
(PID.TID 0000.0001)                   F
(PID.TID 0000.0001)     ;
(PID.TID 0000.0001) PTRACERS_useDWNSLP = /* apply DOWN-SLOPE Flow */
(PID.TID 0000.0001)                   F
(PID.TID 0000.0001)     ;
(PID.TID 0000.0001) PTRACERS_useKPP = /* apply KPP scheme */
(PID.TID 0000.0001)                   F
(PID.TID 0000.0001)     ;
(PID.TID 0000.0001) PTRACERS_ref = /* Reference vertical profile */
(PID.TID 0000.0001)    35 @  0.000000000000000E+00              /* K =  1: 35 */
(PID.TID 0000.0001)     ;
(PID.TID 0000.0001) PTRACERS_EvPrRn =/* tracer conc. in Evap. & Rain */
(PID.TID 0000.0001)                 1.234567000000000E+05
(PID.TID 0000.0001)     ;
(PID.TID 0000.0001)  -----------------------------------
(PID.TID 0000.0001)  tracer number :   84
(PID.TID 0000.0001) PTRACERS_names = /* Tracer short name */
(PID.TID 0000.0001)               'c66'
(PID.TID 0000.0001)     ;
(PID.TID 0000.0001) PTRACERS_long_names = /* Tracer long name */
(PID.TID 0000.0001)               ''
(PID.TID 0000.0001)     ;
(PID.TID 0000.0001) PTRACERS_ioLabel = /* tracer IO Label */
(PID.TID 0000.0001)               '84'
(PID.TID 0000.0001)     ;
(PID.TID 0000.0001) PTRACERS_advScheme = /* Advection Scheme */
(PID.TID 0000.0001)                      33
(PID.TID 0000.0001)     ;
(PID.TID 0000.0001) PTRACERS_SOM_Advection = /* tracer uses SOM advection scheme */
(PID.TID 0000.0001)                   F
(PID.TID 0000.0001)     ;
(PID.TID 0000.0001) PTRACERS_ImplVertAdv = /* implicit vert. advection flag */
(PID.TID 0000.0001)                   F
(PID.TID 0000.0001)     ;
(PID.TID 0000.0001) PTRACERS_diffKh = /* Laplacian Diffusivity */
(PID.TID 0000.0001)                 0.000000000000000E+00
(PID.TID 0000.0001)     ;
(PID.TID 0000.0001) PTRACERS_diffK4 = /* Biharmonic Diffusivity */
(PID.TID 0000.0001)                 0.000000000000000E+00
(PID.TID 0000.0001)     ;
(PID.TID 0000.0001) PTRACERS_diffKrNr = /* Vertical Diffusivity */
(PID.TID 0000.0001)    35 @  1.000000000000000E-05              /* K =  1: 35 */
(PID.TID 0000.0001)     ;
(PID.TID 0000.0001) PTRACERS_useGMRedi = /* apply GM-Redi */
(PID.TID 0000.0001)                   F
(PID.TID 0000.0001)     ;
(PID.TID 0000.0001) PTRACERS_useDWNSLP = /* apply DOWN-SLOPE Flow */
(PID.TID 0000.0001)                   F
(PID.TID 0000.0001)     ;
(PID.TID 0000.0001) PTRACERS_useKPP = /* apply KPP scheme */
(PID.TID 0000.0001)                   F
(PID.TID 0000.0001)     ;
(PID.TID 0000.0001) PTRACERS_ref = /* Reference vertical profile */
(PID.TID 0000.0001)    35 @  0.000000000000000E+00              /* K =  1: 35 */
(PID.TID 0000.0001)     ;
(PID.TID 0000.0001) PTRACERS_EvPrRn =/* tracer conc. in Evap. & Rain */
(PID.TID 0000.0001)                 1.234567000000000E+05
(PID.TID 0000.0001)     ;
(PID.TID 0000.0001)  -----------------------------------
(PID.TID 0000.0001)  tracer number :   85
(PID.TID 0000.0001) PTRACERS_names = /* Tracer short name */
(PID.TID 0000.0001)               'c67'
(PID.TID 0000.0001)     ;
(PID.TID 0000.0001) PTRACERS_long_names = /* Tracer long name */
(PID.TID 0000.0001)               ''
(PID.TID 0000.0001)     ;
(PID.TID 0000.0001) PTRACERS_ioLabel = /* tracer IO Label */
(PID.TID 0000.0001)               '85'
(PID.TID 0000.0001)     ;
(PID.TID 0000.0001) PTRACERS_advScheme = /* Advection Scheme */
(PID.TID 0000.0001)                      33
(PID.TID 0000.0001)     ;
(PID.TID 0000.0001) PTRACERS_SOM_Advection = /* tracer uses SOM advection scheme */
(PID.TID 0000.0001)                   F
(PID.TID 0000.0001)     ;
(PID.TID 0000.0001) PTRACERS_ImplVertAdv = /* implicit vert. advection flag */
(PID.TID 0000.0001)                   F
(PID.TID 0000.0001)     ;
(PID.TID 0000.0001) PTRACERS_diffKh = /* Laplacian Diffusivity */
(PID.TID 0000.0001)                 0.000000000000000E+00
(PID.TID 0000.0001)     ;
(PID.TID 0000.0001) PTRACERS_diffK4 = /* Biharmonic Diffusivity */
(PID.TID 0000.0001)                 0.000000000000000E+00
(PID.TID 0000.0001)     ;
(PID.TID 0000.0001) PTRACERS_diffKrNr = /* Vertical Diffusivity */
(PID.TID 0000.0001)    35 @  1.000000000000000E-05              /* K =  1: 35 */
(PID.TID 0000.0001)     ;
(PID.TID 0000.0001) PTRACERS_useGMRedi = /* apply GM-Redi */
(PID.TID 0000.0001)                   F
(PID.TID 0000.0001)     ;
(PID.TID 0000.0001) PTRACERS_useDWNSLP = /* apply DOWN-SLOPE Flow */
(PID.TID 0000.0001)                   F
(PID.TID 0000.0001)     ;
(PID.TID 0000.0001) PTRACERS_useKPP = /* apply KPP scheme */
(PID.TID 0000.0001)                   F
(PID.TID 0000.0001)     ;
(PID.TID 0000.0001) PTRACERS_ref = /* Reference vertical profile */
(PID.TID 0000.0001)    35 @  0.000000000000000E+00              /* K =  1: 35 */
(PID.TID 0000.0001)     ;
(PID.TID 0000.0001) PTRACERS_EvPrRn =/* tracer conc. in Evap. & Rain */
(PID.TID 0000.0001)                 1.234567000000000E+05
(PID.TID 0000.0001)     ;
(PID.TID 0000.0001)  -----------------------------------
(PID.TID 0000.0001)  tracer number :   86
(PID.TID 0000.0001) PTRACERS_names = /* Tracer short name */
(PID.TID 0000.0001)               'c68'
(PID.TID 0000.0001)     ;
(PID.TID 0000.0001) PTRACERS_long_names = /* Tracer long name */
(PID.TID 0000.0001)               ''
(PID.TID 0000.0001)     ;
(PID.TID 0000.0001) PTRACERS_ioLabel = /* tracer IO Label */
(PID.TID 0000.0001)               '86'
(PID.TID 0000.0001)     ;
(PID.TID 0000.0001) PTRACERS_advScheme = /* Advection Scheme */
(PID.TID 0000.0001)                      33
(PID.TID 0000.0001)     ;
(PID.TID 0000.0001) PTRACERS_SOM_Advection = /* tracer uses SOM advection scheme */
(PID.TID 0000.0001)                   F
(PID.TID 0000.0001)     ;
(PID.TID 0000.0001) PTRACERS_ImplVertAdv = /* implicit vert. advection flag */
(PID.TID 0000.0001)                   F
(PID.TID 0000.0001)     ;
(PID.TID 0000.0001) PTRACERS_diffKh = /* Laplacian Diffusivity */
(PID.TID 0000.0001)                 0.000000000000000E+00
(PID.TID 0000.0001)     ;
(PID.TID 0000.0001) PTRACERS_diffK4 = /* Biharmonic Diffusivity */
(PID.TID 0000.0001)                 0.000000000000000E+00
(PID.TID 0000.0001)     ;
(PID.TID 0000.0001) PTRACERS_diffKrNr = /* Vertical Diffusivity */
(PID.TID 0000.0001)    35 @  1.000000000000000E-05              /* K =  1: 35 */
(PID.TID 0000.0001)     ;
(PID.TID 0000.0001) PTRACERS_useGMRedi = /* apply GM-Redi */
(PID.TID 0000.0001)                   F
(PID.TID 0000.0001)     ;
(PID.TID 0000.0001) PTRACERS_useDWNSLP = /* apply DOWN-SLOPE Flow */
(PID.TID 0000.0001)                   F
(PID.TID 0000.0001)     ;
(PID.TID 0000.0001) PTRACERS_useKPP = /* apply KPP scheme */
(PID.TID 0000.0001)                   F
(PID.TID 0000.0001)     ;
(PID.TID 0000.0001) PTRACERS_ref = /* Reference vertical profile */
(PID.TID 0000.0001)    35 @  0.000000000000000E+00              /* K =  1: 35 */
(PID.TID 0000.0001)     ;
(PID.TID 0000.0001) PTRACERS_EvPrRn =/* tracer conc. in Evap. & Rain */
(PID.TID 0000.0001)                 1.234567000000000E+05
(PID.TID 0000.0001)     ;
(PID.TID 0000.0001)  -----------------------------------
(PID.TID 0000.0001)  tracer number :   87
(PID.TID 0000.0001) PTRACERS_names = /* Tracer short name */
(PID.TID 0000.0001)               'c69'
(PID.TID 0000.0001)     ;
(PID.TID 0000.0001) PTRACERS_long_names = /* Tracer long name */
(PID.TID 0000.0001)               ''
(PID.TID 0000.0001)     ;
(PID.TID 0000.0001) PTRACERS_ioLabel = /* tracer IO Label */
(PID.TID 0000.0001)               '87'
(PID.TID 0000.0001)     ;
(PID.TID 0000.0001) PTRACERS_advScheme = /* Advection Scheme */
(PID.TID 0000.0001)                      33
(PID.TID 0000.0001)     ;
(PID.TID 0000.0001) PTRACERS_SOM_Advection = /* tracer uses SOM advection scheme */
(PID.TID 0000.0001)                   F
(PID.TID 0000.0001)     ;
(PID.TID 0000.0001) PTRACERS_ImplVertAdv = /* implicit vert. advection flag */
(PID.TID 0000.0001)                   F
(PID.TID 0000.0001)     ;
(PID.TID 0000.0001) PTRACERS_diffKh = /* Laplacian Diffusivity */
(PID.TID 0000.0001)                 0.000000000000000E+00
(PID.TID 0000.0001)     ;
(PID.TID 0000.0001) PTRACERS_diffK4 = /* Biharmonic Diffusivity */
(PID.TID 0000.0001)                 0.000000000000000E+00
(PID.TID 0000.0001)     ;
(PID.TID 0000.0001) PTRACERS_diffKrNr = /* Vertical Diffusivity */
(PID.TID 0000.0001)    35 @  1.000000000000000E-05              /* K =  1: 35 */
(PID.TID 0000.0001)     ;
(PID.TID 0000.0001) PTRACERS_useGMRedi = /* apply GM-Redi */
(PID.TID 0000.0001)                   F
(PID.TID 0000.0001)     ;
(PID.TID 0000.0001) PTRACERS_useDWNSLP = /* apply DOWN-SLOPE Flow */
(PID.TID 0000.0001)                   F
(PID.TID 0000.0001)     ;
(PID.TID 0000.0001) PTRACERS_useKPP = /* apply KPP scheme */
(PID.TID 0000.0001)                   F
(PID.TID 0000.0001)     ;
(PID.TID 0000.0001) PTRACERS_ref = /* Reference vertical profile */
(PID.TID 0000.0001)    35 @  0.000000000000000E+00              /* K =  1: 35 */
(PID.TID 0000.0001)     ;
(PID.TID 0000.0001) PTRACERS_EvPrRn =/* tracer conc. in Evap. & Rain */
(PID.TID 0000.0001)                 1.234567000000000E+05
(PID.TID 0000.0001)     ;
(PID.TID 0000.0001)  -----------------------------------
(PID.TID 0000.0001)  tracer number :   88
(PID.TID 0000.0001) PTRACERS_names = /* Tracer short name */
(PID.TID 0000.0001)               'c70'
(PID.TID 0000.0001)     ;
(PID.TID 0000.0001) PTRACERS_long_names = /* Tracer long name */
(PID.TID 0000.0001)               ''
(PID.TID 0000.0001)     ;
(PID.TID 0000.0001) PTRACERS_ioLabel = /* tracer IO Label */
(PID.TID 0000.0001)               '88'
(PID.TID 0000.0001)     ;
(PID.TID 0000.0001) PTRACERS_advScheme = /* Advection Scheme */
(PID.TID 0000.0001)                      33
(PID.TID 0000.0001)     ;
(PID.TID 0000.0001) PTRACERS_SOM_Advection = /* tracer uses SOM advection scheme */
(PID.TID 0000.0001)                   F
(PID.TID 0000.0001)     ;
(PID.TID 0000.0001) PTRACERS_ImplVertAdv = /* implicit vert. advection flag */
(PID.TID 0000.0001)                   F
(PID.TID 0000.0001)     ;
(PID.TID 0000.0001) PTRACERS_diffKh = /* Laplacian Diffusivity */
(PID.TID 0000.0001)                 0.000000000000000E+00
(PID.TID 0000.0001)     ;
(PID.TID 0000.0001) PTRACERS_diffK4 = /* Biharmonic Diffusivity */
(PID.TID 0000.0001)                 0.000000000000000E+00
(PID.TID 0000.0001)     ;
(PID.TID 0000.0001) PTRACERS_diffKrNr = /* Vertical Diffusivity */
(PID.TID 0000.0001)    35 @  1.000000000000000E-05              /* K =  1: 35 */
(PID.TID 0000.0001)     ;
(PID.TID 0000.0001) PTRACERS_useGMRedi = /* apply GM-Redi */
(PID.TID 0000.0001)                   F
(PID.TID 0000.0001)     ;
(PID.TID 0000.0001) PTRACERS_useDWNSLP = /* apply DOWN-SLOPE Flow */
(PID.TID 0000.0001)                   F
(PID.TID 0000.0001)     ;
(PID.TID 0000.0001) PTRACERS_useKPP = /* apply KPP scheme */
(PID.TID 0000.0001)                   F
(PID.TID 0000.0001)     ;
(PID.TID 0000.0001) PTRACERS_ref = /* Reference vertical profile */
(PID.TID 0000.0001)    35 @  0.000000000000000E+00              /* K =  1: 35 */
(PID.TID 0000.0001)     ;
(PID.TID 0000.0001) PTRACERS_EvPrRn =/* tracer conc. in Evap. & Rain */
(PID.TID 0000.0001)                 1.234567000000000E+05
(PID.TID 0000.0001)     ;
(PID.TID 0000.0001)  -----------------------------------
(PID.TID 0000.0001)  tracer number :   89
(PID.TID 0000.0001) PTRACERS_names = /* Tracer short name */
(PID.TID 0000.0001)               'c71'
(PID.TID 0000.0001)     ;
(PID.TID 0000.0001) PTRACERS_long_names = /* Tracer long name */
(PID.TID 0000.0001)               ''
(PID.TID 0000.0001)     ;
(PID.TID 0000.0001) PTRACERS_ioLabel = /* tracer IO Label */
(PID.TID 0000.0001)               '89'
(PID.TID 0000.0001)     ;
(PID.TID 0000.0001) PTRACERS_advScheme = /* Advection Scheme */
(PID.TID 0000.0001)                      33
(PID.TID 0000.0001)     ;
(PID.TID 0000.0001) PTRACERS_SOM_Advection = /* tracer uses SOM advection scheme */
(PID.TID 0000.0001)                   F
(PID.TID 0000.0001)     ;
(PID.TID 0000.0001) PTRACERS_ImplVertAdv = /* implicit vert. advection flag */
(PID.TID 0000.0001)                   F
(PID.TID 0000.0001)     ;
(PID.TID 0000.0001) PTRACERS_diffKh = /* Laplacian Diffusivity */
(PID.TID 0000.0001)                 0.000000000000000E+00
(PID.TID 0000.0001)     ;
(PID.TID 0000.0001) PTRACERS_diffK4 = /* Biharmonic Diffusivity */
(PID.TID 0000.0001)                 0.000000000000000E+00
(PID.TID 0000.0001)     ;
(PID.TID 0000.0001) PTRACERS_diffKrNr = /* Vertical Diffusivity */
(PID.TID 0000.0001)    35 @  1.000000000000000E-05              /* K =  1: 35 */
(PID.TID 0000.0001)     ;
(PID.TID 0000.0001) PTRACERS_useGMRedi = /* apply GM-Redi */
(PID.TID 0000.0001)                   F
(PID.TID 0000.0001)     ;
(PID.TID 0000.0001) PTRACERS_useDWNSLP = /* apply DOWN-SLOPE Flow */
(PID.TID 0000.0001)                   F
(PID.TID 0000.0001)     ;
(PID.TID 0000.0001) PTRACERS_useKPP = /* apply KPP scheme */
(PID.TID 0000.0001)                   F
(PID.TID 0000.0001)     ;
(PID.TID 0000.0001) PTRACERS_ref = /* Reference vertical profile */
(PID.TID 0000.0001)    35 @  0.000000000000000E+00              /* K =  1: 35 */
(PID.TID 0000.0001)     ;
(PID.TID 0000.0001) PTRACERS_EvPrRn =/* tracer conc. in Evap. & Rain */
(PID.TID 0000.0001)                 1.234567000000000E+05
(PID.TID 0000.0001)     ;
(PID.TID 0000.0001)  -----------------------------------
(PID.TID 0000.0001)  tracer number :   90
(PID.TID 0000.0001) PTRACERS_names = /* Tracer short name */
(PID.TID 0000.0001)               'c72'
(PID.TID 0000.0001)     ;
(PID.TID 0000.0001) PTRACERS_long_names = /* Tracer long name */
(PID.TID 0000.0001)               ''
(PID.TID 0000.0001)     ;
(PID.TID 0000.0001) PTRACERS_ioLabel = /* tracer IO Label */
(PID.TID 0000.0001)               '90'
(PID.TID 0000.0001)     ;
(PID.TID 0000.0001) PTRACERS_advScheme = /* Advection Scheme */
(PID.TID 0000.0001)                      33
(PID.TID 0000.0001)     ;
(PID.TID 0000.0001) PTRACERS_SOM_Advection = /* tracer uses SOM advection scheme */
(PID.TID 0000.0001)                   F
(PID.TID 0000.0001)     ;
(PID.TID 0000.0001) PTRACERS_ImplVertAdv = /* implicit vert. advection flag */
(PID.TID 0000.0001)                   F
(PID.TID 0000.0001)     ;
(PID.TID 0000.0001) PTRACERS_diffKh = /* Laplacian Diffusivity */
(PID.TID 0000.0001)                 0.000000000000000E+00
(PID.TID 0000.0001)     ;
(PID.TID 0000.0001) PTRACERS_diffK4 = /* Biharmonic Diffusivity */
(PID.TID 0000.0001)                 0.000000000000000E+00
(PID.TID 0000.0001)     ;
(PID.TID 0000.0001) PTRACERS_diffKrNr = /* Vertical Diffusivity */
(PID.TID 0000.0001)    35 @  1.000000000000000E-05              /* K =  1: 35 */
(PID.TID 0000.0001)     ;
(PID.TID 0000.0001) PTRACERS_useGMRedi = /* apply GM-Redi */
(PID.TID 0000.0001)                   F
(PID.TID 0000.0001)     ;
(PID.TID 0000.0001) PTRACERS_useDWNSLP = /* apply DOWN-SLOPE Flow */
(PID.TID 0000.0001)                   F
(PID.TID 0000.0001)     ;
(PID.TID 0000.0001) PTRACERS_useKPP = /* apply KPP scheme */
(PID.TID 0000.0001)                   F
(PID.TID 0000.0001)     ;
(PID.TID 0000.0001) PTRACERS_ref = /* Reference vertical profile */
(PID.TID 0000.0001)    35 @  0.000000000000000E+00              /* K =  1: 35 */
(PID.TID 0000.0001)     ;
(PID.TID 0000.0001) PTRACERS_EvPrRn =/* tracer conc. in Evap. & Rain */
(PID.TID 0000.0001)                 1.234567000000000E+05
(PID.TID 0000.0001)     ;
(PID.TID 0000.0001)  -----------------------------------
(PID.TID 0000.0001)  tracer number :   91
(PID.TID 0000.0001) PTRACERS_names = /* Tracer short name */
(PID.TID 0000.0001)               'c73'
(PID.TID 0000.0001)     ;
(PID.TID 0000.0001) PTRACERS_long_names = /* Tracer long name */
(PID.TID 0000.0001)               ''
(PID.TID 0000.0001)     ;
(PID.TID 0000.0001) PTRACERS_ioLabel = /* tracer IO Label */
(PID.TID 0000.0001)               '91'
(PID.TID 0000.0001)     ;
(PID.TID 0000.0001) PTRACERS_advScheme = /* Advection Scheme */
(PID.TID 0000.0001)                      33
(PID.TID 0000.0001)     ;
(PID.TID 0000.0001) PTRACERS_SOM_Advection = /* tracer uses SOM advection scheme */
(PID.TID 0000.0001)                   F
(PID.TID 0000.0001)     ;
(PID.TID 0000.0001) PTRACERS_ImplVertAdv = /* implicit vert. advection flag */
(PID.TID 0000.0001)                   F
(PID.TID 0000.0001)     ;
(PID.TID 0000.0001) PTRACERS_diffKh = /* Laplacian Diffusivity */
(PID.TID 0000.0001)                 0.000000000000000E+00
(PID.TID 0000.0001)     ;
(PID.TID 0000.0001) PTRACERS_diffK4 = /* Biharmonic Diffusivity */
(PID.TID 0000.0001)                 0.000000000000000E+00
(PID.TID 0000.0001)     ;
(PID.TID 0000.0001) PTRACERS_diffKrNr = /* Vertical Diffusivity */
(PID.TID 0000.0001)    35 @  1.000000000000000E-05              /* K =  1: 35 */
(PID.TID 0000.0001)     ;
(PID.TID 0000.0001) PTRACERS_useGMRedi = /* apply GM-Redi */
(PID.TID 0000.0001)                   F
(PID.TID 0000.0001)     ;
(PID.TID 0000.0001) PTRACERS_useDWNSLP = /* apply DOWN-SLOPE Flow */
(PID.TID 0000.0001)                   F
(PID.TID 0000.0001)     ;
(PID.TID 0000.0001) PTRACERS_useKPP = /* apply KPP scheme */
(PID.TID 0000.0001)                   F
(PID.TID 0000.0001)     ;
(PID.TID 0000.0001) PTRACERS_ref = /* Reference vertical profile */
(PID.TID 0000.0001)    35 @  0.000000000000000E+00              /* K =  1: 35 */
(PID.TID 0000.0001)     ;
(PID.TID 0000.0001) PTRACERS_EvPrRn =/* tracer conc. in Evap. & Rain */
(PID.TID 0000.0001)                 1.234567000000000E+05
(PID.TID 0000.0001)     ;
(PID.TID 0000.0001)  -----------------------------------
(PID.TID 0000.0001)  tracer number :   92
(PID.TID 0000.0001) PTRACERS_names = /* Tracer short name */
(PID.TID 0000.0001)               'c74'
(PID.TID 0000.0001)     ;
(PID.TID 0000.0001) PTRACERS_long_names = /* Tracer long name */
(PID.TID 0000.0001)               ''
(PID.TID 0000.0001)     ;
(PID.TID 0000.0001) PTRACERS_ioLabel = /* tracer IO Label */
(PID.TID 0000.0001)               '92'
(PID.TID 0000.0001)     ;
(PID.TID 0000.0001) PTRACERS_advScheme = /* Advection Scheme */
(PID.TID 0000.0001)                      33
(PID.TID 0000.0001)     ;
(PID.TID 0000.0001) PTRACERS_SOM_Advection = /* tracer uses SOM advection scheme */
(PID.TID 0000.0001)                   F
(PID.TID 0000.0001)     ;
(PID.TID 0000.0001) PTRACERS_ImplVertAdv = /* implicit vert. advection flag */
(PID.TID 0000.0001)                   F
(PID.TID 0000.0001)     ;
(PID.TID 0000.0001) PTRACERS_diffKh = /* Laplacian Diffusivity */
(PID.TID 0000.0001)                 0.000000000000000E+00
(PID.TID 0000.0001)     ;
(PID.TID 0000.0001) PTRACERS_diffK4 = /* Biharmonic Diffusivity */
(PID.TID 0000.0001)                 0.000000000000000E+00
(PID.TID 0000.0001)     ;
(PID.TID 0000.0001) PTRACERS_diffKrNr = /* Vertical Diffusivity */
(PID.TID 0000.0001)    35 @  1.000000000000000E-05              /* K =  1: 35 */
(PID.TID 0000.0001)     ;
(PID.TID 0000.0001) PTRACERS_useGMRedi = /* apply GM-Redi */
(PID.TID 0000.0001)                   F
(PID.TID 0000.0001)     ;
(PID.TID 0000.0001) PTRACERS_useDWNSLP = /* apply DOWN-SLOPE Flow */
(PID.TID 0000.0001)                   F
(PID.TID 0000.0001)     ;
(PID.TID 0000.0001) PTRACERS_useKPP = /* apply KPP scheme */
(PID.TID 0000.0001)                   F
(PID.TID 0000.0001)     ;
(PID.TID 0000.0001) PTRACERS_ref = /* Reference vertical profile */
(PID.TID 0000.0001)    35 @  0.000000000000000E+00              /* K =  1: 35 */
(PID.TID 0000.0001)     ;
(PID.TID 0000.0001) PTRACERS_EvPrRn =/* tracer conc. in Evap. & Rain */
(PID.TID 0000.0001)                 1.234567000000000E+05
(PID.TID 0000.0001)     ;
(PID.TID 0000.0001)  -----------------------------------
(PID.TID 0000.0001)  tracer number :   93
(PID.TID 0000.0001) PTRACERS_names = /* Tracer short name */
(PID.TID 0000.0001)               'c75'
(PID.TID 0000.0001)     ;
(PID.TID 0000.0001) PTRACERS_long_names = /* Tracer long name */
(PID.TID 0000.0001)               ''
(PID.TID 0000.0001)     ;
(PID.TID 0000.0001) PTRACERS_ioLabel = /* tracer IO Label */
(PID.TID 0000.0001)               '93'
(PID.TID 0000.0001)     ;
(PID.TID 0000.0001) PTRACERS_advScheme = /* Advection Scheme */
(PID.TID 0000.0001)                      33
(PID.TID 0000.0001)     ;
(PID.TID 0000.0001) PTRACERS_SOM_Advection = /* tracer uses SOM advection scheme */
(PID.TID 0000.0001)                   F
(PID.TID 0000.0001)     ;
(PID.TID 0000.0001) PTRACERS_ImplVertAdv = /* implicit vert. advection flag */
(PID.TID 0000.0001)                   F
(PID.TID 0000.0001)     ;
(PID.TID 0000.0001) PTRACERS_diffKh = /* Laplacian Diffusivity */
(PID.TID 0000.0001)                 0.000000000000000E+00
(PID.TID 0000.0001)     ;
(PID.TID 0000.0001) PTRACERS_diffK4 = /* Biharmonic Diffusivity */
(PID.TID 0000.0001)                 0.000000000000000E+00
(PID.TID 0000.0001)     ;
(PID.TID 0000.0001) PTRACERS_diffKrNr = /* Vertical Diffusivity */
(PID.TID 0000.0001)    35 @  1.000000000000000E-05              /* K =  1: 35 */
(PID.TID 0000.0001)     ;
(PID.TID 0000.0001) PTRACERS_useGMRedi = /* apply GM-Redi */
(PID.TID 0000.0001)                   F
(PID.TID 0000.0001)     ;
(PID.TID 0000.0001) PTRACERS_useDWNSLP = /* apply DOWN-SLOPE Flow */
(PID.TID 0000.0001)                   F
(PID.TID 0000.0001)     ;
(PID.TID 0000.0001) PTRACERS_useKPP = /* apply KPP scheme */
(PID.TID 0000.0001)                   F
(PID.TID 0000.0001)     ;
(PID.TID 0000.0001) PTRACERS_ref = /* Reference vertical profile */
(PID.TID 0000.0001)    35 @  0.000000000000000E+00              /* K =  1: 35 */
(PID.TID 0000.0001)     ;
(PID.TID 0000.0001) PTRACERS_EvPrRn =/* tracer conc. in Evap. & Rain */
(PID.TID 0000.0001)                 1.234567000000000E+05
(PID.TID 0000.0001)     ;
(PID.TID 0000.0001)  -----------------------------------
(PID.TID 0000.0001)  tracer number :   94
(PID.TID 0000.0001) PTRACERS_names = /* Tracer short name */
(PID.TID 0000.0001)               'c76'
(PID.TID 0000.0001)     ;
(PID.TID 0000.0001) PTRACERS_long_names = /* Tracer long name */
(PID.TID 0000.0001)               ''
(PID.TID 0000.0001)     ;
(PID.TID 0000.0001) PTRACERS_ioLabel = /* tracer IO Label */
(PID.TID 0000.0001)               '94'
(PID.TID 0000.0001)     ;
(PID.TID 0000.0001) PTRACERS_advScheme = /* Advection Scheme */
(PID.TID 0000.0001)                      33
(PID.TID 0000.0001)     ;
(PID.TID 0000.0001) PTRACERS_SOM_Advection = /* tracer uses SOM advection scheme */
(PID.TID 0000.0001)                   F
(PID.TID 0000.0001)     ;
(PID.TID 0000.0001) PTRACERS_ImplVertAdv = /* implicit vert. advection flag */
(PID.TID 0000.0001)                   F
(PID.TID 0000.0001)     ;
(PID.TID 0000.0001) PTRACERS_diffKh = /* Laplacian Diffusivity */
(PID.TID 0000.0001)                 0.000000000000000E+00
(PID.TID 0000.0001)     ;
(PID.TID 0000.0001) PTRACERS_diffK4 = /* Biharmonic Diffusivity */
(PID.TID 0000.0001)                 0.000000000000000E+00
(PID.TID 0000.0001)     ;
(PID.TID 0000.0001) PTRACERS_diffKrNr = /* Vertical Diffusivity */
(PID.TID 0000.0001)    35 @  1.000000000000000E-05              /* K =  1: 35 */
(PID.TID 0000.0001)     ;
(PID.TID 0000.0001) PTRACERS_useGMRedi = /* apply GM-Redi */
(PID.TID 0000.0001)                   F
(PID.TID 0000.0001)     ;
(PID.TID 0000.0001) PTRACERS_useDWNSLP = /* apply DOWN-SLOPE Flow */
(PID.TID 0000.0001)                   F
(PID.TID 0000.0001)     ;
(PID.TID 0000.0001) PTRACERS_useKPP = /* apply KPP scheme */
(PID.TID 0000.0001)                   F
(PID.TID 0000.0001)     ;
(PID.TID 0000.0001) PTRACERS_ref = /* Reference vertical profile */
(PID.TID 0000.0001)    35 @  0.000000000000000E+00              /* K =  1: 35 */
(PID.TID 0000.0001)     ;
(PID.TID 0000.0001) PTRACERS_EvPrRn =/* tracer conc. in Evap. & Rain */
(PID.TID 0000.0001)                 1.234567000000000E+05
(PID.TID 0000.0001)     ;
(PID.TID 0000.0001)  -----------------------------------
(PID.TID 0000.0001)  tracer number :   95
(PID.TID 0000.0001) PTRACERS_names = /* Tracer short name */
(PID.TID 0000.0001)               'c77'
(PID.TID 0000.0001)     ;
(PID.TID 0000.0001) PTRACERS_long_names = /* Tracer long name */
(PID.TID 0000.0001)               ''
(PID.TID 0000.0001)     ;
(PID.TID 0000.0001) PTRACERS_ioLabel = /* tracer IO Label */
(PID.TID 0000.0001)               '95'
(PID.TID 0000.0001)     ;
(PID.TID 0000.0001) PTRACERS_advScheme = /* Advection Scheme */
(PID.TID 0000.0001)                      33
(PID.TID 0000.0001)     ;
(PID.TID 0000.0001) PTRACERS_SOM_Advection = /* tracer uses SOM advection scheme */
(PID.TID 0000.0001)                   F
(PID.TID 0000.0001)     ;
(PID.TID 0000.0001) PTRACERS_ImplVertAdv = /* implicit vert. advection flag */
(PID.TID 0000.0001)                   F
(PID.TID 0000.0001)     ;
(PID.TID 0000.0001) PTRACERS_diffKh = /* Laplacian Diffusivity */
(PID.TID 0000.0001)                 0.000000000000000E+00
(PID.TID 0000.0001)     ;
(PID.TID 0000.0001) PTRACERS_diffK4 = /* Biharmonic Diffusivity */
(PID.TID 0000.0001)                 0.000000000000000E+00
(PID.TID 0000.0001)     ;
(PID.TID 0000.0001) PTRACERS_diffKrNr = /* Vertical Diffusivity */
(PID.TID 0000.0001)    35 @  1.000000000000000E-05              /* K =  1: 35 */
(PID.TID 0000.0001)     ;
(PID.TID 0000.0001) PTRACERS_useGMRedi = /* apply GM-Redi */
(PID.TID 0000.0001)                   F
(PID.TID 0000.0001)     ;
(PID.TID 0000.0001) PTRACERS_useDWNSLP = /* apply DOWN-SLOPE Flow */
(PID.TID 0000.0001)                   F
(PID.TID 0000.0001)     ;
(PID.TID 0000.0001) PTRACERS_useKPP = /* apply KPP scheme */
(PID.TID 0000.0001)                   F
(PID.TID 0000.0001)     ;
(PID.TID 0000.0001) PTRACERS_ref = /* Reference vertical profile */
(PID.TID 0000.0001)    35 @  0.000000000000000E+00              /* K =  1: 35 */
(PID.TID 0000.0001)     ;
(PID.TID 0000.0001) PTRACERS_EvPrRn =/* tracer conc. in Evap. & Rain */
(PID.TID 0000.0001)                 1.234567000000000E+05
(PID.TID 0000.0001)     ;
(PID.TID 0000.0001)  -----------------------------------
(PID.TID 0000.0001)  tracer number :   96
(PID.TID 0000.0001) PTRACERS_names = /* Tracer short name */
(PID.TID 0000.0001)               'c78'
(PID.TID 0000.0001)     ;
(PID.TID 0000.0001) PTRACERS_long_names = /* Tracer long name */
(PID.TID 0000.0001)               ''
(PID.TID 0000.0001)     ;
(PID.TID 0000.0001) PTRACERS_ioLabel = /* tracer IO Label */
(PID.TID 0000.0001)               '96'
(PID.TID 0000.0001)     ;
(PID.TID 0000.0001) PTRACERS_advScheme = /* Advection Scheme */
(PID.TID 0000.0001)                      33
(PID.TID 0000.0001)     ;
(PID.TID 0000.0001) PTRACERS_SOM_Advection = /* tracer uses SOM advection scheme */
(PID.TID 0000.0001)                   F
(PID.TID 0000.0001)     ;
(PID.TID 0000.0001) PTRACERS_ImplVertAdv = /* implicit vert. advection flag */
(PID.TID 0000.0001)                   F
(PID.TID 0000.0001)     ;
(PID.TID 0000.0001) PTRACERS_diffKh = /* Laplacian Diffusivity */
(PID.TID 0000.0001)                 0.000000000000000E+00
(PID.TID 0000.0001)     ;
(PID.TID 0000.0001) PTRACERS_diffK4 = /* Biharmonic Diffusivity */
(PID.TID 0000.0001)                 0.000000000000000E+00
(PID.TID 0000.0001)     ;
(PID.TID 0000.0001) PTRACERS_diffKrNr = /* Vertical Diffusivity */
(PID.TID 0000.0001)    35 @  1.000000000000000E-05              /* K =  1: 35 */
(PID.TID 0000.0001)     ;
(PID.TID 0000.0001) PTRACERS_useGMRedi = /* apply GM-Redi */
(PID.TID 0000.0001)                   F
(PID.TID 0000.0001)     ;
(PID.TID 0000.0001) PTRACERS_useDWNSLP = /* apply DOWN-SLOPE Flow */
(PID.TID 0000.0001)                   F
(PID.TID 0000.0001)     ;
(PID.TID 0000.0001) PTRACERS_useKPP = /* apply KPP scheme */
(PID.TID 0000.0001)                   F
(PID.TID 0000.0001)     ;
(PID.TID 0000.0001) PTRACERS_ref = /* Reference vertical profile */
(PID.TID 0000.0001)    35 @  0.000000000000000E+00              /* K =  1: 35 */
(PID.TID 0000.0001)     ;
(PID.TID 0000.0001) PTRACERS_EvPrRn =/* tracer conc. in Evap. & Rain */
(PID.TID 0000.0001)                 1.234567000000000E+05
(PID.TID 0000.0001)     ;
(PID.TID 0000.0001)  -----------------------------------
(PID.TID 0000.0001)  tracer number :   97
(PID.TID 0000.0001) PTRACERS_names = /* Tracer short name */
(PID.TID 0000.0001)               'zc1'
(PID.TID 0000.0001)     ;
(PID.TID 0000.0001) PTRACERS_long_names = /* Tracer long name */
(PID.TID 0000.0001)               ''
(PID.TID 0000.0001)     ;
(PID.TID 0000.0001) PTRACERS_ioLabel = /* tracer IO Label */
(PID.TID 0000.0001)               '97'
(PID.TID 0000.0001)     ;
(PID.TID 0000.0001) PTRACERS_advScheme = /* Advection Scheme */
(PID.TID 0000.0001)                      33
(PID.TID 0000.0001)     ;
(PID.TID 0000.0001) PTRACERS_SOM_Advection = /* tracer uses SOM advection scheme */
(PID.TID 0000.0001)                   F
(PID.TID 0000.0001)     ;
(PID.TID 0000.0001) PTRACERS_ImplVertAdv = /* implicit vert. advection flag */
(PID.TID 0000.0001)                   F
(PID.TID 0000.0001)     ;
(PID.TID 0000.0001) PTRACERS_diffKh = /* Laplacian Diffusivity */
(PID.TID 0000.0001)                 0.000000000000000E+00
(PID.TID 0000.0001)     ;
(PID.TID 0000.0001) PTRACERS_diffK4 = /* Biharmonic Diffusivity */
(PID.TID 0000.0001)                 0.000000000000000E+00
(PID.TID 0000.0001)     ;
(PID.TID 0000.0001) PTRACERS_diffKrNr = /* Vertical Diffusivity */
(PID.TID 0000.0001)    35 @  1.000000000000000E-05              /* K =  1: 35 */
(PID.TID 0000.0001)     ;
(PID.TID 0000.0001) PTRACERS_useGMRedi = /* apply GM-Redi */
(PID.TID 0000.0001)                   F
(PID.TID 0000.0001)     ;
(PID.TID 0000.0001) PTRACERS_useDWNSLP = /* apply DOWN-SLOPE Flow */
(PID.TID 0000.0001)                   F
(PID.TID 0000.0001)     ;
(PID.TID 0000.0001) PTRACERS_useKPP = /* apply KPP scheme */
(PID.TID 0000.0001)                   F
(PID.TID 0000.0001)     ;
(PID.TID 0000.0001) PTRACERS_ref = /* Reference vertical profile */
(PID.TID 0000.0001)    35 @  0.000000000000000E+00              /* K =  1: 35 */
(PID.TID 0000.0001)     ;
(PID.TID 0000.0001) PTRACERS_EvPrRn =/* tracer conc. in Evap. & Rain */
(PID.TID 0000.0001)                 1.234567000000000E+05
(PID.TID 0000.0001)     ;
(PID.TID 0000.0001)  -----------------------------------
(PID.TID 0000.0001)  tracer number :   98
(PID.TID 0000.0001) PTRACERS_names = /* Tracer short name */
(PID.TID 0000.0001)               'zc2'
(PID.TID 0000.0001)     ;
(PID.TID 0000.0001) PTRACERS_long_names = /* Tracer long name */
(PID.TID 0000.0001)               ''
(PID.TID 0000.0001)     ;
(PID.TID 0000.0001) PTRACERS_ioLabel = /* tracer IO Label */
(PID.TID 0000.0001)               '98'
(PID.TID 0000.0001)     ;
(PID.TID 0000.0001) PTRACERS_advScheme = /* Advection Scheme */
(PID.TID 0000.0001)                      33
(PID.TID 0000.0001)     ;
(PID.TID 0000.0001) PTRACERS_SOM_Advection = /* tracer uses SOM advection scheme */
(PID.TID 0000.0001)                   F
(PID.TID 0000.0001)     ;
(PID.TID 0000.0001) PTRACERS_ImplVertAdv = /* implicit vert. advection flag */
(PID.TID 0000.0001)                   F
(PID.TID 0000.0001)     ;
(PID.TID 0000.0001) PTRACERS_diffKh = /* Laplacian Diffusivity */
(PID.TID 0000.0001)                 0.000000000000000E+00
(PID.TID 0000.0001)     ;
(PID.TID 0000.0001) PTRACERS_diffK4 = /* Biharmonic Diffusivity */
(PID.TID 0000.0001)                 0.000000000000000E+00
(PID.TID 0000.0001)     ;
(PID.TID 0000.0001) PTRACERS_diffKrNr = /* Vertical Diffusivity */
(PID.TID 0000.0001)    35 @  1.000000000000000E-05              /* K =  1: 35 */
(PID.TID 0000.0001)     ;
(PID.TID 0000.0001) PTRACERS_useGMRedi = /* apply GM-Redi */
(PID.TID 0000.0001)                   F
(PID.TID 0000.0001)     ;
(PID.TID 0000.0001) PTRACERS_useDWNSLP = /* apply DOWN-SLOPE Flow */
(PID.TID 0000.0001)                   F
(PID.TID 0000.0001)     ;
(PID.TID 0000.0001) PTRACERS_useKPP = /* apply KPP scheme */
(PID.TID 0000.0001)                   F
(PID.TID 0000.0001)     ;
(PID.TID 0000.0001) PTRACERS_ref = /* Reference vertical profile */
(PID.TID 0000.0001)    35 @  0.000000000000000E+00              /* K =  1: 35 */
(PID.TID 0000.0001)     ;
(PID.TID 0000.0001) PTRACERS_EvPrRn =/* tracer conc. in Evap. & Rain */
(PID.TID 0000.0001)                 1.234567000000000E+05
(PID.TID 0000.0001)     ;
(PID.TID 0000.0001)  -----------------------------------
(PID.TID 0000.0001) GCHEM_CHECK: #define ALLOW_GCHEM
(PID.TID 0000.0001) DARWIN_CHECK: #define ALLOW_DARWIN
(PID.TID 0000.0001) DARWIN_CHECK: iPtr darwin   PTRACERS_names
(PID.TID 0000.0001) DARWIN_CHECK:    1 DIC      DIC
(PID.TID 0000.0001) DARWIN_CHECK:    2 NH4      NH4
(PID.TID 0000.0001) DARWIN_CHECK:    3 NO2      NO2
(PID.TID 0000.0001) DARWIN_CHECK:    4 NO3      NO3
(PID.TID 0000.0001) DARWIN_CHECK:    5 PO4      PO4
(PID.TID 0000.0001) DARWIN_CHECK:    6 SiO2     SiO2
(PID.TID 0000.0001) DARWIN_CHECK:    7 FeT      FeT
(PID.TID 0000.0001) DARWIN_CHECK:    8 DOC      DOC
(PID.TID 0000.0001) DARWIN_CHECK:    9 DON      DON
(PID.TID 0000.0001) DARWIN_CHECK:   10 DOP      DOP
(PID.TID 0000.0001) DARWIN_CHECK:   11 DOFe     DOFe
(PID.TID 0000.0001) DARWIN_CHECK:   12 POC      POC
(PID.TID 0000.0001) DARWIN_CHECK:   13 PON      PON
(PID.TID 0000.0001) DARWIN_CHECK:   14 POP      POP
(PID.TID 0000.0001) DARWIN_CHECK:   15 POSi     POSi
(PID.TID 0000.0001) DARWIN_CHECK:   16 POFe     POFe
(PID.TID 0000.0001) DARWIN_CHECK:   17 PIC      PIC
(PID.TID 0000.0001) DARWIN_CHECK:   18 CDOM (1) CDOM
(PID.TID 0000.0001) DARWIN_CHECK:   19 c    (1) c01
(PID.TID 0000.0001) DARWIN_CHECK:   20 c    (2) c02
(PID.TID 0000.0001) DARWIN_CHECK:   21 c    (3) c03
(PID.TID 0000.0001) DARWIN_CHECK:   22 c    (4) c04
(PID.TID 0000.0001) DARWIN_CHECK:   23 c    (5) c05
(PID.TID 0000.0001) DARWIN_CHECK:   24 c    (6) c06
(PID.TID 0000.0001) DARWIN_CHECK:   25 c    (7) c07
(PID.TID 0000.0001) DARWIN_CHECK:   26 c    (8) c08
(PID.TID 0000.0001) DARWIN_CHECK:   27 c    (9) c09
(PID.TID 0000.0001) DARWIN_CHECK:   28 c    (*) c10
(PID.TID 0000.0001) DARWIN_CHECK:   29 c    (*) c11
(PID.TID 0000.0001) DARWIN_CHECK:   30 c    (*) c12
(PID.TID 0000.0001) DARWIN_CHECK:   31 c    (*) c13
(PID.TID 0000.0001) DARWIN_CHECK:   32 c    (*) c14
(PID.TID 0000.0001) DARWIN_CHECK:   33 c    (*) c15
(PID.TID 0000.0001) DARWIN_CHECK:   34 c    (*) c16
(PID.TID 0000.0001) DARWIN_CHECK:   35 c    (*) c17
(PID.TID 0000.0001) DARWIN_CHECK:   36 c    (*) c18
(PID.TID 0000.0001) DARWIN_CHECK:   37 c    (*) c19
(PID.TID 0000.0001) DARWIN_CHECK:   38 c    (*) c20
(PID.TID 0000.0001) DARWIN_CHECK:   39 c    (*) c21
(PID.TID 0000.0001) DARWIN_CHECK:   40 c    (*) c22
(PID.TID 0000.0001) DARWIN_CHECK:   41 c    (*) c23
(PID.TID 0000.0001) DARWIN_CHECK:   42 c    (*) c24
(PID.TID 0000.0001) DARWIN_CHECK:   43 c    (*) c25
(PID.TID 0000.0001) DARWIN_CHECK:   44 c    (*) c26
(PID.TID 0000.0001) DARWIN_CHECK:   45 c    (*) c27
(PID.TID 0000.0001) DARWIN_CHECK:   46 c    (*) c28
(PID.TID 0000.0001) DARWIN_CHECK:   47 c    (*) c29
(PID.TID 0000.0001) DARWIN_CHECK:   48 c    (*) c30
(PID.TID 0000.0001) DARWIN_CHECK:   49 c    (*) c31
(PID.TID 0000.0001) DARWIN_CHECK:   50 c    (*) c32
(PID.TID 0000.0001) DARWIN_CHECK:   51 c    (*) c33
(PID.TID 0000.0001) DARWIN_CHECK:   52 c    (*) c34
(PID.TID 0000.0001) DARWIN_CHECK:   53 c    (*) c35
(PID.TID 0000.0001) DARWIN_CHECK:   54 c    (*) c36
(PID.TID 0000.0001) DARWIN_CHECK:   55 c    (*) c37
(PID.TID 0000.0001) DARWIN_CHECK:   56 c    (*) c38
(PID.TID 0000.0001) DARWIN_CHECK:   57 c    (*) c39
(PID.TID 0000.0001) DARWIN_CHECK:   58 c    (*) c40
(PID.TID 0000.0001) DARWIN_CHECK:   59 c    (*) c41
(PID.TID 0000.0001) DARWIN_CHECK:   60 c    (*) c42
(PID.TID 0000.0001) DARWIN_CHECK:   61 c    (*) c43
(PID.TID 0000.0001) DARWIN_CHECK:   62 c    (*) c44
(PID.TID 0000.0001) DARWIN_CHECK:   63 c    (*) c45
(PID.TID 0000.0001) DARWIN_CHECK:   64 c    (*) c46
(PID.TID 0000.0001) DARWIN_CHECK:   65 c    (*) c47
(PID.TID 0000.0001) DARWIN_CHECK:   66 c    (*) c48
(PID.TID 0000.0001) DARWIN_CHECK:   67 c    (*) c49
(PID.TID 0000.0001) DARWIN_CHECK:   68 c    (*) c50
(PID.TID 0000.0001) DARWIN_CHECK:   69 c    (*) c51
(PID.TID 0000.0001) DARWIN_CHECK:   70 c    (*) c52
(PID.TID 0000.0001) DARWIN_CHECK:   71 c    (*) c53
(PID.TID 0000.0001) DARWIN_CHECK:   72 c    (*) c54
(PID.TID 0000.0001) DARWIN_CHECK:   73 c    (*) c55
(PID.TID 0000.0001) DARWIN_CHECK:   74 c    (*) c56
(PID.TID 0000.0001) DARWIN_CHECK:   75 c    (*) c57
(PID.TID 0000.0001) DARWIN_CHECK:   76 c    (*) c58
(PID.TID 0000.0001) DARWIN_CHECK:   77 c    (*) c59
(PID.TID 0000.0001) DARWIN_CHECK:   78 c    (*) c60
(PID.TID 0000.0001) DARWIN_CHECK:   79 c    (*) c61
(PID.TID 0000.0001) DARWIN_CHECK:   80 c    (*) c62
(PID.TID 0000.0001) DARWIN_CHECK:   81 c    (*) c63
(PID.TID 0000.0001) DARWIN_CHECK:   82 c    (*) c64
(PID.TID 0000.0001) DARWIN_CHECK:   83 c    (*) c65
(PID.TID 0000.0001) DARWIN_CHECK:   84 c    (*) c66
(PID.TID 0000.0001) DARWIN_CHECK:   85 c    (*) c67
(PID.TID 0000.0001) DARWIN_CHECK:   86 c    (*) c68
(PID.TID 0000.0001) DARWIN_CHECK:   87 c    (*) c69
(PID.TID 0000.0001) DARWIN_CHECK:   88 c    (*) c70
(PID.TID 0000.0001) DARWIN_CHECK:   89 c    (*) c71
(PID.TID 0000.0001) DARWIN_CHECK:   90 c    (*) c72
(PID.TID 0000.0001) DARWIN_CHECK:   91 c    (*) c73
(PID.TID 0000.0001) DARWIN_CHECK:   92 c    (*) c74
(PID.TID 0000.0001) DARWIN_CHECK:   93 c    (*) c75
(PID.TID 0000.0001) DARWIN_CHECK:   94 c    (*) c76
(PID.TID 0000.0001) DARWIN_CHECK:   95 c    (*) c77
(PID.TID 0000.0001) DARWIN_CHECK:   96 c    (*) c78
(PID.TID 0000.0001) DARWIN_CHECK:   97 c    (*) zc1
(PID.TID 0000.0001) DARWIN_CHECK:   98 c    (*) zc2
(PID.TID 0000.0001) GAD_CHECK: #define ALLOW_GENERIC_ADVDIFF
(PID.TID 0000.0001) // =======================================================
(PID.TID 0000.0001) // Check Model config. (CONFIG_CHECK):
(PID.TID 0000.0001) // CONFIG_CHECK : Normal End
(PID.TID 0000.0001) // =======================================================
(PID.TID 0000.0001) 
(PID.TID 0000.0001)  MDS_READ_FIELD: opening global file: ../input/input/loc1_temp_janprof.bin
(PID.TID 0000.0001)  MDS_READ_FIELD: opening global file: ../input/input/salt_uniform.bin
(PID.TID 0000.0001) Start initial hydrostatic pressure computation
(PID.TID 0000.0001) Pressure is predetermined for buoyancyRelation OCEANIC
(PID.TID 0000.0001) 
(PID.TID 0000.0001)  MDS_READ_FIELD: opening global file: ../input/input/loc1_temp_monsurf.bin
(PID.TID 0000.0001)  write diagnostics summary to file ioUnit:      6
Iter.Nb:         0 ; Time(s):  0.0000000000000E+00
------------------------------------------------------------------------
2D/3D diagnostics: Number of lists:     1
------------------------------------------------------------------------
listId=    1 ; file name: darwin
 nFlds, nActive,       freq     &     phase        , nLev               
   98  |   98  |      3600.000000         0.000000 |  35
 levels:   1   2   3   4   5   6   7   8   9  10  11  12  13  14  15  16  17  18  19  20  21  22  23  24  25
 levels:  26  27  28  29  30  31  32  33  34  35
 diag# | name   |   ipt  |  iMate | kLev|   count |   mate.C|           
   140 |TRAC01  |      1 |      0 |  35 |       0 |
   152 |TRAC02  |     36 |      0 |  35 |       0 |
   164 |TRAC03  |     71 |      0 |  35 |       0 |
   176 |TRAC04  |    106 |      0 |  35 |       0 |
   188 |TRAC05  |    141 |      0 |  35 |       0 |
   200 |TRAC06  |    176 |      0 |  35 |       0 |
   212 |TRAC07  |    211 |      0 |  35 |       0 |
   224 |TRAC08  |    246 |      0 |  35 |       0 |
   236 |TRAC09  |    281 |      0 |  35 |       0 |
   248 |TRAC10  |    316 |      0 |  35 |       0 |
   260 |TRAC11  |    351 |      0 |  35 |       0 |
   272 |TRAC12  |    386 |      0 |  35 |       0 |
   284 |TRAC13  |    421 |      0 |  35 |       0 |
   296 |TRAC14  |    456 |      0 |  35 |       0 |
   308 |TRAC15  |    491 |      0 |  35 |       0 |
   320 |TRAC16  |    526 |      0 |  35 |       0 |
   332 |TRAC17  |    561 |      0 |  35 |       0 |
   344 |TRAC18  |    596 |      0 |  35 |       0 |
   356 |TRAC19  |    631 |      0 |  35 |       0 |
   368 |TRAC20  |    666 |      0 |  35 |       0 |
   380 |TRAC21  |    701 |      0 |  35 |       0 |
   392 |TRAC22  |    736 |      0 |  35 |       0 |
   404 |TRAC23  |    771 |      0 |  35 |       0 |
   416 |TRAC24  |    806 |      0 |  35 |       0 |
   428 |TRAC25  |    841 |      0 |  35 |       0 |
   440 |TRAC26  |    876 |      0 |  35 |       0 |
   452 |TRAC27  |    911 |      0 |  35 |       0 |
   464 |TRAC28  |    946 |      0 |  35 |       0 |
   476 |TRAC29  |    981 |      0 |  35 |       0 |
   488 |TRAC30  |   1016 |      0 |  35 |       0 |
   500 |TRAC31  |   1051 |      0 |  35 |       0 |
   512 |TRAC32  |   1086 |      0 |  35 |       0 |
   524 |TRAC33  |   1121 |      0 |  35 |       0 |
   536 |TRAC34  |   1156 |      0 |  35 |       0 |
   548 |TRAC35  |   1191 |      0 |  35 |       0 |
   560 |TRAC36  |   1226 |      0 |  35 |       0 |
   572 |TRAC37  |   1261 |      0 |  35 |       0 |
   584 |TRAC38  |   1296 |      0 |  35 |       0 |
   596 |TRAC39  |   1331 |      0 |  35 |       0 |
   608 |TRAC40  |   1366 |      0 |  35 |       0 |
   620 |TRAC41  |   1401 |      0 |  35 |       0 |
   632 |TRAC42  |   1436 |      0 |  35 |       0 |
   644 |TRAC43  |   1471 |      0 |  35 |       0 |
   656 |TRAC44  |   1506 |      0 |  35 |       0 |
   668 |TRAC45  |   1541 |      0 |  35 |       0 |
   680 |TRAC46  |   1576 |      0 |  35 |       0 |
   692 |TRAC47  |   1611 |      0 |  35 |       0 |
   704 |TRAC48  |   1646 |      0 |  35 |       0 |
   716 |TRAC49  |   1681 |      0 |  35 |       0 |
   728 |TRAC50  |   1716 |      0 |  35 |       0 |
   740 |TRAC51  |   1751 |      0 |  35 |       0 |
   752 |TRAC52  |   1786 |      0 |  35 |       0 |
   764 |TRAC53  |   1821 |      0 |  35 |       0 |
   776 |TRAC54  |   1856 |      0 |  35 |       0 |
   788 |TRAC55  |   1891 |      0 |  35 |       0 |
   800 |TRAC56  |   1926 |      0 |  35 |       0 |
   812 |TRAC57  |   1961 |      0 |  35 |       0 |
   824 |TRAC58  |   1996 |      0 |  35 |       0 |
   836 |TRAC59  |   2031 |      0 |  35 |       0 |
   848 |TRAC60  |   2066 |      0 |  35 |       0 |
   860 |TRAC61  |   2101 |      0 |  35 |       0 |
   872 |TRAC62  |   2136 |      0 |  35 |       0 |
   884 |TRAC63  |   2171 |      0 |  35 |       0 |
   896 |TRAC64  |   2206 |      0 |  35 |       0 |
   908 |TRAC65  |   2241 |      0 |  35 |       0 |
   920 |TRAC66  |   2276 |      0 |  35 |       0 |
   932 |TRAC67  |   2311 |      0 |  35 |       0 |
   944 |TRAC68  |   2346 |      0 |  35 |       0 |
   956 |TRAC69  |   2381 |      0 |  35 |       0 |
   968 |TRAC70  |   2416 |      0 |  35 |       0 |
   980 |TRAC71  |   2451 |      0 |  35 |       0 |
   992 |TRAC72  |   2486 |      0 |  35 |       0 |
  1004 |TRAC73  |   2521 |      0 |  35 |       0 |
  1016 |TRAC74  |   2556 |      0 |  35 |       0 |
  1028 |TRAC75  |   2591 |      0 |  35 |       0 |
  1040 |TRAC76  |   2626 |      0 |  35 |       0 |
  1052 |TRAC77  |   2661 |      0 |  35 |       0 |
  1064 |TRAC78  |   2696 |      0 |  35 |       0 |
  1076 |TRAC79  |   2731 |      0 |  35 |       0 |
  1088 |TRAC80  |   2766 |      0 |  35 |       0 |
  1100 |TRAC81  |   2801 |      0 |  35 |       0 |
  1112 |TRAC82  |   2836 |      0 |  35 |       0 |
  1124 |TRAC83  |   2871 |      0 |  35 |       0 |
  1136 |TRAC84  |   2906 |      0 |  35 |       0 |
  1148 |TRAC85  |   2941 |      0 |  35 |       0 |
  1160 |TRAC86  |   2976 |      0 |  35 |       0 |
  1172 |TRAC87  |   3011 |      0 |  35 |       0 |
  1184 |TRAC88  |   3046 |      0 |  35 |       0 |
  1196 |TRAC89  |   3081 |      0 |  35 |       0 |
  1208 |TRAC90  |   3116 |      0 |  35 |       0 |
  1220 |TRAC91  |   3151 |      0 |  35 |       0 |
  1232 |TRAC92  |   3186 |      0 |  35 |       0 |
  1244 |TRAC93  |   3221 |      0 |  35 |       0 |
  1256 |TRAC94  |   3256 |      0 |  35 |       0 |
  1268 |TRAC95  |   3291 |      0 |  35 |       0 |
  1280 |TRAC96  |   3326 |      0 |  35 |       0 |
  1292 |TRAC97  |   3361 |      0 |  35 |       0 |
  1304 |TRAC98  |   3396 |      0 |  35 |       0 |
------------------------------------------------------------------------
Global & Regional Statistics diagnostics: Number of lists:     0
------------------------------------------------------------------------
(PID.TID 0000.0001)  MDS_READ_FIELD: opening global file: ../input/input/loc1_NH4_run83_janprof.bin
(PID.TID 0000.0001)  MDS_READ_FIELD: opening global file: ../input/input/loc1_NO2_run83_janprof.bin
(PID.TID 0000.0001)  MDS_READ_FIELD: opening global file: ../input/input/loc1_nitr_janprof.bin
(PID.TID 0000.0001)  MDS_READ_FIELD: opening global file: ../input/input/loc1_phos_janprof.bin
(PID.TID 0000.0001)  MDS_READ_FIELD: opening global file: ../input/input/loc1_sil_janprof.bin
(PID.TID 0000.0001)  MDS_READ_FIELD: opening global file: ../input/input/fet_uniform.bin
(PID.TID 0000.0001)  MDS_READ_FIELD: opening global file: ../input/input/loc1_DON_run83_janprof.bin
(PID.TID 0000.0001)  MDS_READ_FIELD: opening global file: ../input/input/loc1_DOP_run83_janprof.bin
(PID.TID 0000.0001)  MDS_READ_FIELD: opening global file: ../input/input/loc1_DOFe_run83_janprof.bin
(PID.TID 0000.0001)  MDS_READ_FIELD: opening global file: ../input/input/loc1_PON_run83_janprof.bin
(PID.TID 0000.0001)  MDS_READ_FIELD: opening global file: ../input/input/loc1_POP_run83_janprof.bin
(PID.TID 0000.0001)  MDS_READ_FIELD: opening global file: ../input/input/loc1_POSi_run83_janprof.bin
(PID.TID 0000.0001)  MDS_READ_FIELD: opening global file: ../input/input/loc1_POFe_run83_janprof.bin
(PID.TID 0000.0001)  MDS_READ_FIELD: opening global file: ../input/input/loc1_DOP_run83_janprof.bin
(PID.TID 0000.0001)  MDS_READ_FIELD: opening global file: ../input/input/loc1_biomass_run83_janprof.bin
(PID.TID 0000.0001)  MDS_READ_FIELD: opening global file: ../input/input/loc1_biomass_run83_janprof.bin
(PID.TID 0000.0001)  MDS_READ_FIELD: opening global file: ../input/input/loc1_biomass_run83_janprof.bin
(PID.TID 0000.0001)  MDS_READ_FIELD: opening global file: ../input/input/loc1_biomass_run83_janprof.bin
(PID.TID 0000.0001)  MDS_READ_FIELD: opening global file: ../input/input/loc1_biomass_run83_janprof.bin
(PID.TID 0000.0001)  MDS_READ_FIELD: opening global file: ../input/input/loc1_biomass_run83_janprof.bin
(PID.TID 0000.0001)  MDS_READ_FIELD: opening global file: ../input/input/loc1_biomass_run83_janprof.bin
(PID.TID 0000.0001)  MDS_READ_FIELD: opening global file: ../input/input/loc1_biomass_run83_janprof.bin
(PID.TID 0000.0001)  MDS_READ_FIELD: opening global file: ../input/input/loc1_biomass_run83_janprof.bin
(PID.TID 0000.0001)  MDS_READ_FIELD: opening global file: ../input/input/loc1_biomass_run83_janprof.bin
(PID.TID 0000.0001)  MDS_READ_FIELD: opening global file: ../input/input/loc1_biomass_run83_janprof.bin
(PID.TID 0000.0001)  MDS_READ_FIELD: opening global file: ../input/input/loc1_biomass_run83_janprof.bin
(PID.TID 0000.0001)  MDS_READ_FIELD: opening global file: ../input/input/loc1_biomass_run83_janprof.bin
(PID.TID 0000.0001)  MDS_READ_FIELD: opening global file: ../input/input/loc1_biomass_run83_janprof.bin
(PID.TID 0000.0001)  MDS_READ_FIELD: opening global file: ../input/input/loc1_biomass_run83_janprof.bin
(PID.TID 0000.0001)  MDS_READ_FIELD: opening global file: ../input/input/loc1_biomass_run83_janprof.bin
(PID.TID 0000.0001)  MDS_READ_FIELD: opening global file: ../input/input/loc1_biomass_run83_janprof.bin
(PID.TID 0000.0001)  MDS_READ_FIELD: opening global file: ../input/input/loc1_biomass_run83_janprof.bin
(PID.TID 0000.0001)  MDS_READ_FIELD: opening global file: ../input/input/loc1_biomass_run83_janprof.bin
(PID.TID 0000.0001)  MDS_READ_FIELD: opening global file: ../input/input/loc1_biomass_run83_janprof.bin
(PID.TID 0000.0001)  MDS_READ_FIELD: opening global file: ../input/input/loc1_biomass_run83_janprof.bin
(PID.TID 0000.0001)  MDS_READ_FIELD: opening global file: ../input/input/loc1_biomass_run83_janprof.bin
(PID.TID 0000.0001)  MDS_READ_FIELD: opening global file: ../input/input/loc1_biomass_run83_janprof.bin
(PID.TID 0000.0001)  MDS_READ_FIELD: opening global file: ../input/input/loc1_biomass_run83_janprof.bin
(PID.TID 0000.0001)  MDS_READ_FIELD: opening global file: ../input/input/loc1_biomass_run83_janprof.bin
(PID.TID 0000.0001)  MDS_READ_FIELD: opening global file: ../input/input/loc1_biomass_run83_janprof.bin
(PID.TID 0000.0001)  MDS_READ_FIELD: opening global file: ../input/input/loc1_biomass_run83_janprof.bin
(PID.TID 0000.0001)  MDS_READ_FIELD: opening global file: ../input/input/loc1_biomass_run83_janprof.bin
(PID.TID 0000.0001)  MDS_READ_FIELD: opening global file: ../input/input/loc1_biomass_run83_janprof.bin
(PID.TID 0000.0001)  MDS_READ_FIELD: opening global file: ../input/input/loc1_biomass_run83_janprof.bin
(PID.TID 0000.0001)  MDS_READ_FIELD: opening global file: ../input/input/loc1_biomass_run83_janprof.bin
(PID.TID 0000.0001)  MDS_READ_FIELD: opening global file: ../input/input/loc1_biomass_run83_janprof.bin
(PID.TID 0000.0001)  MDS_READ_FIELD: opening global file: ../input/input/loc1_biomass_run83_janprof.bin
(PID.TID 0000.0001)  MDS_READ_FIELD: opening global file: ../input/input/loc1_biomass_run83_janprof.bin
(PID.TID 0000.0001)  MDS_READ_FIELD: opening global file: ../input/input/loc1_biomass_run83_janprof.bin
(PID.TID 0000.0001)  MDS_READ_FIELD: opening global file: ../input/input/loc1_biomass_run83_janprof.bin
(PID.TID 0000.0001)  MDS_READ_FIELD: opening global file: ../input/input/loc1_biomass_run83_janprof.bin
(PID.TID 0000.0001)  MDS_READ_FIELD: opening global file: ../input/input/loc1_biomass_run83_janprof.bin
(PID.TID 0000.0001)  MDS_READ_FIELD: opening global file: ../input/input/loc1_biomass_run83_janprof.bin
(PID.TID 0000.0001)  MDS_READ_FIELD: opening global file: ../input/input/loc1_biomass_run83_janprof.bin
(PID.TID 0000.0001)  MDS_READ_FIELD: opening global file: ../input/input/loc1_biomass_run83_janprof.bin
(PID.TID 0000.0001)  MDS_READ_FIELD: opening global file: ../input/input/loc1_biomass_run83_janprof.bin
(PID.TID 0000.0001)  MDS_READ_FIELD: opening global file: ../input/input/loc1_biomass_run83_janprof.bin
(PID.TID 0000.0001)  MDS_READ_FIELD: opening global file: ../input/input/loc1_biomass_run83_janprof.bin
(PID.TID 0000.0001)  MDS_READ_FIELD: opening global file: ../input/input/loc1_biomass_run83_janprof.bin
(PID.TID 0000.0001)  MDS_READ_FIELD: opening global file: ../input/input/loc1_biomass_run83_janprof.bin
(PID.TID 0000.0001)  MDS_READ_FIELD: opening global file: ../input/input/loc1_biomass_run83_janprof.bin
(PID.TID 0000.0001)  MDS_READ_FIELD: opening global file: ../input/input/loc1_biomass_run83_janprof.bin
(PID.TID 0000.0001)  MDS_READ_FIELD: opening global file: ../input/input/loc1_biomass_run83_janprof.bin
(PID.TID 0000.0001)  MDS_READ_FIELD: opening global file: ../input/input/loc1_biomass_run83_janprof.bin
(PID.TID 0000.0001)  MDS_READ_FIELD: opening global file: ../input/input/loc1_biomass_run83_janprof.bin
(PID.TID 0000.0001)  MDS_READ_FIELD: opening global file: ../input/input/loc1_biomass_run83_janprof.bin
(PID.TID 0000.0001)  MDS_READ_FIELD: opening global file: ../input/input/loc1_biomass_run83_janprof.bin
(PID.TID 0000.0001)  MDS_READ_FIELD: opening global file: ../input/input/loc1_biomass_run83_janprof.bin
(PID.TID 0000.0001)  MDS_READ_FIELD: opening global file: ../input/input/loc1_biomass_run83_janprof.bin
(PID.TID 0000.0001)  MDS_READ_FIELD: opening global file: ../input/input/loc1_biomass_run83_janprof.bin
(PID.TID 0000.0001)  MDS_READ_FIELD: opening global file: ../input/input/loc1_biomass_run83_janprof.bin
(PID.TID 0000.0001)  MDS_READ_FIELD: opening global file: ../input/input/loc1_biomass_run83_janprof.bin
(PID.TID 0000.0001)  MDS_READ_FIELD: opening global file: ../input/input/loc1_biomass_run83_janprof.bin
(PID.TID 0000.0001)  MDS_READ_FIELD: opening global file: ../input/input/loc1_biomass_run83_janprof.bin
(PID.TID 0000.0001)  MDS_READ_FIELD: opening global file: ../input/input/loc1_biomass_run83_janprof.bin
(PID.TID 0000.0001)  MDS_READ_FIELD: opening global file: ../input/input/loc1_biomass_run83_janprof.bin
(PID.TID 0000.0001)  MDS_READ_FIELD: opening global file: ../input/input/loc1_biomass_run83_janprof.bin
(PID.TID 0000.0001)  MDS_READ_FIELD: opening global file: ../input/input/loc1_biomass_run83_janprof.bin
(PID.TID 0000.0001)  MDS_READ_FIELD: opening global file: ../input/input/loc1_biomass_run83_janprof.bin
(PID.TID 0000.0001)  MDS_READ_FIELD: opening global file: ../input/input/loc1_biomass_run83_janprof.bin
(PID.TID 0000.0001)  MDS_READ_FIELD: opening global file: ../input/input/loc1_biomass_run83_janprof.bin
(PID.TID 0000.0001)  MDS_READ_FIELD: opening global file: ../input/input/loc1_biomass_run83_janprof.bin
(PID.TID 0000.0001)  MDS_READ_FIELD: opening global file: ../input/input/loc1_biomass_run83_janprof.bin
(PID.TID 0000.0001)  MDS_READ_FIELD: opening global file: ../input/input/loc1_biomass_run83_janprof.bin
(PID.TID 0000.0001)  MDS_READ_FIELD: opening global file: ../input/input/loc1_biomass_run83_janprof.bin
(PID.TID 0000.0001)  MDS_READ_FIELD: opening global file: ../input/input/loc1_biomass_run83_janprof.bin
(PID.TID 0000.0001)  MDS_READ_FIELD: opening global file: ../input/input/loc1_biomass_run83_janprof.bin
(PID.TID 0000.0001)  MDS_READ_FIELD: opening global file: ../input/input/loc1_biomass_run83_janprof.bin
(PID.TID 0000.0001)  MDS_READ_FIELD: opening global file: ../input/input/loc1_biomass_run83_janprof.bin
(PID.TID 0000.0001)  MDS_READ_FIELD: opening global file: ../input/input/loc1_biomass_run83_janprof.bin
(PID.TID 0000.0001)  MDS_READ_FIELD: opening global file: ../input/input/loc1_biomass_run83_janprof.bin
(PID.TID 0000.0001)  MDS_READ_FIELD: opening global file: ../input/input/loc1_biomass_run83_janprof.bin
(PID.TID 0000.0001)  MDS_READ_FIELD: opening global file: ../input/input/loc1_ZOOP_run83_janprof.bin
(PID.TID 0000.0001)  MDS_READ_FIELD: opening global file: ../input/input/loc1_ZOOP_run83_janprof.bin
 PAR   9.8239160280393681E+252
(PID.TID 0000.0001) // =======================================================
(PID.TID 0000.0001) // Model current state
(PID.TID 0000.0001) // =======================================================
(PID.TID 0000.0001) 
(PID.TID 0000.0001) // =======================================================
(PID.TID 0000.0001) // Begin MONITOR dynamic field statistics
(PID.TID 0000.0001) // =======================================================
(PID.TID 0000.0001) %MON time_tsnumber                =                     0
(PID.TID 0000.0001) %MON time_secondsf                =   0.0000000000000000E+00
(PID.TID 0000.0001) %MON dynstat_eta_max              =   0.0000000000000000E+00
(PID.TID 0000.0001) %MON dynstat_eta_min              =   0.0000000000000000E+00
(PID.TID 0000.0001) %MON dynstat_eta_mean             =   0.0000000000000000E+00
(PID.TID 0000.0001) %MON dynstat_eta_sd               =   0.0000000000000000E+00
(PID.TID 0000.0001) %MON dynstat_eta_del2             =   0.0000000000000000E+00
(PID.TID 0000.0001) %MON dynstat_uvel_max             =   0.0000000000000000E+00
(PID.TID 0000.0001) %MON dynstat_uvel_min             =   0.0000000000000000E+00
(PID.TID 0000.0001) %MON dynstat_uvel_mean            =   0.0000000000000000E+00
(PID.TID 0000.0001) %MON dynstat_uvel_sd              =   0.0000000000000000E+00
(PID.TID 0000.0001) %MON dynstat_uvel_del2            =   0.0000000000000000E+00
(PID.TID 0000.0001) %MON dynstat_vvel_max             =   0.0000000000000000E+00
(PID.TID 0000.0001) %MON dynstat_vvel_min             =   0.0000000000000000E+00
(PID.TID 0000.0001) %MON dynstat_vvel_mean            =   0.0000000000000000E+00
(PID.TID 0000.0001) %MON dynstat_vvel_sd              =   0.0000000000000000E+00
(PID.TID 0000.0001) %MON dynstat_vvel_del2            =   0.0000000000000000E+00
(PID.TID 0000.0001) %MON dynstat_wvel_max             =   0.0000000000000000E+00
(PID.TID 0000.0001) %MON dynstat_wvel_min             =   0.0000000000000000E+00
(PID.TID 0000.0001) %MON dynstat_wvel_mean            =   0.0000000000000000E+00
(PID.TID 0000.0001) %MON dynstat_wvel_sd              =   0.0000000000000000E+00
(PID.TID 0000.0001) %MON dynstat_wvel_del2            =   0.0000000000000000E+00
(PID.TID 0000.0001) %MON dynstat_theta_max            =   2.6345800399780273E+01
(PID.TID 0000.0001) %MON dynstat_theta_min            =   2.6737000942230225E+00
(PID.TID 0000.0001) %MON dynstat_theta_mean           =   5.4735936027057521E+00
(PID.TID 0000.0001) %MON dynstat_theta_sd             =   5.1972090828105486E+00
(PID.TID 0000.0001) %MON dynstat_theta_del2           =   0.0000000000000000E+00
(PID.TID 0000.0001) %MON dynstat_salt_max             =   3.5000000000000000E+01
(PID.TID 0000.0001) %MON dynstat_salt_min             =   3.5000000000000000E+01
(PID.TID 0000.0001) %MON dynstat_salt_mean            =   3.5000000000000007E+01
(PID.TID 0000.0001) %MON dynstat_salt_sd              =   7.1054273576010019E-15
(PID.TID 0000.0001) %MON dynstat_salt_del2            =   0.0000000000000000E+00
(PID.TID 0000.0001) %MON dynstat_sst_max              =   2.6345800399780273E+01
(PID.TID 0000.0001) %MON dynstat_sst_min              =   2.6345800399780273E+01
(PID.TID 0000.0001) %MON dynstat_sst_mean             =   2.6345800399780273E+01
(PID.TID 0000.0001) %MON dynstat_sst_sd               =   0.0000000000000000E+00
(PID.TID 0000.0001) %MON dynstat_sst_del2             =   0.0000000000000000E+00
(PID.TID 0000.0001) %MON dynstat_sss_max              =   3.5000000000000000E+01
(PID.TID 0000.0001) %MON dynstat_sss_min              =   3.5000000000000000E+01
(PID.TID 0000.0001) %MON dynstat_sss_mean             =   3.5000000000000000E+01
(PID.TID 0000.0001) %MON dynstat_sss_sd               =   0.0000000000000000E+00
(PID.TID 0000.0001) %MON dynstat_sss_del2             =   0.0000000000000000E+00
(PID.TID 0000.0001) %MON forcing_qnet_max             =   0.0000000000000000E+00
(PID.TID 0000.0001) %MON forcing_qnet_min             =   0.0000000000000000E+00
(PID.TID 0000.0001) %MON forcing_qnet_mean            =   0.0000000000000000E+00
(PID.TID 0000.0001) %MON forcing_qnet_sd              =   0.0000000000000000E+00
(PID.TID 0000.0001) %MON forcing_qnet_del2            =   0.0000000000000000E+00
(PID.TID 0000.0001) %MON forcing_qsw_max              =   0.0000000000000000E+00
(PID.TID 0000.0001) %MON forcing_qsw_min              =   0.0000000000000000E+00
(PID.TID 0000.0001) %MON forcing_qsw_mean             =   0.0000000000000000E+00
(PID.TID 0000.0001) %MON forcing_qsw_sd               =   0.0000000000000000E+00
(PID.TID 0000.0001) %MON forcing_qsw_del2             =   0.0000000000000000E+00
(PID.TID 0000.0001) %MON forcing_empmr_max            =   0.0000000000000000E+00
(PID.TID 0000.0001) %MON forcing_empmr_min            =   0.0000000000000000E+00
(PID.TID 0000.0001) %MON forcing_empmr_mean           =   0.0000000000000000E+00
(PID.TID 0000.0001) %MON forcing_empmr_sd             =   0.0000000000000000E+00
(PID.TID 0000.0001) %MON forcing_empmr_del2           =   0.0000000000000000E+00
(PID.TID 0000.0001) %MON forcing_fu_max               =   0.0000000000000000E+00
(PID.TID 0000.0001) %MON forcing_fu_min               =   0.0000000000000000E+00
(PID.TID 0000.0001) %MON forcing_fu_mean              =   0.0000000000000000E+00
(PID.TID 0000.0001) %MON forcing_fu_sd                =   0.0000000000000000E+00
(PID.TID 0000.0001) %MON forcing_fu_del2              =   0.0000000000000000E+00
(PID.TID 0000.0001) %MON forcing_fv_max               =   0.0000000000000000E+00
(PID.TID 0000.0001) %MON forcing_fv_min               =   0.0000000000000000E+00
(PID.TID 0000.0001) %MON forcing_fv_mean              =   0.0000000000000000E+00
(PID.TID 0000.0001) %MON forcing_fv_sd                =   0.0000000000000000E+00
(PID.TID 0000.0001) %MON forcing_fv_del2              =   0.0000000000000000E+00
(PID.TID 0000.0001) %MON advcfl_uvel_max              =   0.0000000000000000E+00
(PID.TID 0000.0001) %MON advcfl_vvel_max              =   0.0000000000000000E+00
(PID.TID 0000.0001) %MON advcfl_wvel_max              =   0.0000000000000000E+00
(PID.TID 0000.0001) %MON advcfl_W_hf_max              =   0.0000000000000000E+00
(PID.TID 0000.0001) %MON pe_b_mean                    =   0.0000000000000000E+00
(PID.TID 0000.0001) %MON ke_max                       =   0.0000000000000000E+00
(PID.TID 0000.0001) %MON ke_mean                      =   0.0000000000000000E+00
(PID.TID 0000.0001) %MON ke_vol                       =   4.1199767883484609E+13
(PID.TID 0000.0001) %MON vort_r_min                   =   0.0000000000000000E+00
(PID.TID 0000.0001) %MON vort_r_max                   =   0.0000000000000000E+00
(PID.TID 0000.0001) %MON vort_a_mean                  =  -4.5067801836624727E-05
(PID.TID 0000.0001) %MON vort_a_sd                    =  -4.1359030627651384E-25
(PID.TID 0000.0001) %MON vort_p_mean                  =  -4.5067801836624727E-05
(PID.TID 0000.0001) %MON vort_p_sd                    =   0.0000000000000000E+00
(PID.TID 0000.0001) %MON surfExpan_theta_mean         =   0.0000000000000000E+00
(PID.TID 0000.0001) %MON surfExpan_salt_mean          =   0.0000000000000000E+00
(PID.TID 0000.0001) // =======================================================
(PID.TID 0000.0001) // End MONITOR dynamic field statistics
(PID.TID 0000.0001) // =======================================================
(PID.TID 0000.0001) // =======================================================
(PID.TID 0000.0001) // Begin MONITOR ptracer field statistics
(PID.TID 0000.0001) // =======================================================
(PID.TID 0000.0001) %MON trcstat_ptracer01_max        =   2.0000000000000000E+03
(PID.TID 0000.0001) %MON trcstat_ptracer01_min        =   2.0000000000000000E+03
(PID.TID 0000.0001) %MON trcstat_ptracer01_mean       =   2.0000000000000000E+03
(PID.TID 0000.0001) %MON trcstat_ptracer01_sd         =   0.0000000000000000E+00
(PID.TID 0000.0001) %MON trcstat_ptracer01_del2       =   0.0000000000000000E+00
(PID.TID 0000.0001) %MON trcstat_ptracer02_max        =   2.5584036484360695E-02
(PID.TID 0000.0001) %MON trcstat_ptracer02_min        =   1.8763074649541522E-07
(PID.TID 0000.0001) %MON trcstat_ptracer02_mean       =   6.0352662496818848E-04
(PID.TID 0000.0001) %MON trcstat_ptracer02_sd         =   3.2425361014467536E-03
(PID.TID 0000.0001) %MON trcstat_ptracer02_del2       =   0.0000000000000000E+00
(PID.TID 0000.0001) %MON trcstat_ptracer03_max        =   1.8258459866046906E-02
(PID.TID 0000.0001) %MON trcstat_ptracer03_min        =   3.8796779335825704E-06
(PID.TID 0000.0001) %MON trcstat_ptracer03_mean       =   6.0474443227462045E-04
(PID.TID 0000.0001) %MON trcstat_ptracer03_sd         =   1.9428680890593122E-03
(PID.TID 0000.0001) %MON trcstat_ptracer03_del2       =   0.0000000000000000E+00
(PID.TID 0000.0001) %MON trcstat_ptracer04_max        =   3.3903499603271484E+01
(PID.TID 0000.0001) %MON trcstat_ptracer04_min        =   4.6300001442432404E-02
(PID.TID 0000.0001) %MON trcstat_ptracer04_mean       =   2.3502389802217742E+01
(PID.TID 0000.0001) %MON trcstat_ptracer04_sd         =   7.8162030599380596E+00
(PID.TID 0000.0001) %MON trcstat_ptracer04_del2       =   0.0000000000000000E+00
(PID.TID 0000.0001) %MON trcstat_ptracer05_max        =   2.2437000274658203E+00
(PID.TID 0000.0001) %MON trcstat_ptracer05_min        =   2.1024999022483826E-01
(PID.TID 0000.0001) %MON trcstat_ptracer05_mean       =   1.5821337454308768E+00
(PID.TID 0000.0001) %MON trcstat_ptracer05_sd         =   4.6735065681379767E-01
(PID.TID 0000.0001) %MON trcstat_ptracer05_del2       =   0.0000000000000000E+00
(PID.TID 0000.0001) %MON trcstat_ptracer06_max        =   3.9387401580810547E+01
(PID.TID 0000.0001) %MON trcstat_ptracer06_min        =   1.2247999906539917E+00
(PID.TID 0000.0001) %MON trcstat_ptracer06_mean       =   2.9621888811155113E+01
(PID.TID 0000.0001) %MON trcstat_ptracer06_sd         =   1.1270588565468758E+01
(PID.TID 0000.0001) %MON trcstat_ptracer06_del2       =   0.0000000000000000E+00
(PID.TID 0000.0001) %MON trcstat_ptracer07_max        =   1.3000000035390258E-03
(PID.TID 0000.0001) %MON trcstat_ptracer07_min        =   1.3000000035390258E-03
(PID.TID 0000.0001) %MON trcstat_ptracer07_mean       =   1.3000000035390258E-03
(PID.TID 0000.0001) %MON trcstat_ptracer07_sd         =   0.0000000000000000E+00
(PID.TID 0000.0001) %MON trcstat_ptracer07_del2       =   0.0000000000000000E+00
(PID.TID 0000.0001) %MON trcstat_ptracer08_max        =   0.0000000000000000E+00
(PID.TID 0000.0001) %MON trcstat_ptracer08_min        =   0.0000000000000000E+00
(PID.TID 0000.0001) %MON trcstat_ptracer08_mean       =   0.0000000000000000E+00
(PID.TID 0000.0001) %MON trcstat_ptracer08_sd         =   0.0000000000000000E+00
(PID.TID 0000.0001) %MON trcstat_ptracer08_del2       =   0.0000000000000000E+00
(PID.TID 0000.0001) %MON trcstat_ptracer09_max        =   8.1815071403980255E-02
(PID.TID 0000.0001) %MON trcstat_ptracer09_min        =   0.0000000000000000E+00
(PID.TID 0000.0001) %MON trcstat_ptracer09_mean       =   3.4357646734699799E-03
(PID.TID 0000.0001) %MON trcstat_ptracer09_sd         =   1.4790744815688046E-02
(PID.TID 0000.0001) %MON trcstat_ptracer09_del2       =   0.0000000000000000E+00
(PID.TID 0000.0001) %MON trcstat_ptracer10_max        =   5.1134419627487659E-03
(PID.TID 0000.0001) %MON trcstat_ptracer10_min        =   0.0000000000000000E+00
(PID.TID 0000.0001) %MON trcstat_ptracer10_mean       =   2.1473529209187374E-04
(PID.TID 0000.0001) %MON trcstat_ptracer10_sd         =   9.2442155098050290E-04
(PID.TID 0000.0001) %MON trcstat_ptracer10_del2       =   0.0000000000000000E+00
(PID.TID 0000.0001) %MON trcstat_ptracer11_max        =   5.1134416025888640E-06
(PID.TID 0000.0001) %MON trcstat_ptracer11_min        =   0.0000000000000000E+00
(PID.TID 0000.0001) %MON trcstat_ptracer11_mean       =   2.1473529239837693E-07
(PID.TID 0000.0001) %MON trcstat_ptracer11_sd         =   9.2442155063872205E-07
(PID.TID 0000.0001) %MON trcstat_ptracer11_del2       =   0.0000000000000000E+00
(PID.TID 0000.0001) %MON trcstat_ptracer12_max        =   0.0000000000000000E+00
(PID.TID 0000.0001) %MON trcstat_ptracer12_min        =   0.0000000000000000E+00
(PID.TID 0000.0001) %MON trcstat_ptracer12_mean       =   0.0000000000000000E+00
(PID.TID 0000.0001) %MON trcstat_ptracer12_sd         =   0.0000000000000000E+00
(PID.TID 0000.0001) %MON trcstat_ptracer12_del2       =   0.0000000000000000E+00
(PID.TID 0000.0001) %MON trcstat_ptracer13_max        =   4.3595102615654469E-03
(PID.TID 0000.0001) %MON trcstat_ptracer13_min        =   1.8765767890727147E-05
(PID.TID 0000.0001) %MON trcstat_ptracer13_mean       =   1.2629093434171983E-03
(PID.TID 0000.0001) %MON trcstat_ptracer13_sd         =   1.5461536630186044E-03
(PID.TID 0000.0001) %MON trcstat_ptracer13_del2       =   0.0000000000000000E+00
(PID.TID 0000.0001) %MON trcstat_ptracer14_max        =   2.7246939134784043E-04
(PID.TID 0000.0001) %MON trcstat_ptracer14_min        =   1.1728604931704467E-06
(PID.TID 0000.0001) %MON trcstat_ptracer14_mean       =   7.8931833963574895E-05
(PID.TID 0000.0001) %MON trcstat_ptracer14_sd         =   9.6634603938662776E-05
(PID.TID 0000.0001) %MON trcstat_ptracer14_del2       =   0.0000000000000000E+00
(PID.TID 0000.0001) %MON trcstat_ptracer15_max        =   1.6253039240837097E-02
(PID.TID 0000.0001) %MON trcstat_ptracer15_min        =   1.1382005177438259E-03
(PID.TID 0000.0001) %MON trcstat_ptracer15_mean       =   5.4894673427532239E-03
(PID.TID 0000.0001) %MON trcstat_ptracer15_sd         =   5.1731692661236344E-03
(PID.TID 0000.0001) %MON trcstat_ptracer15_del2       =   0.0000000000000000E+00
(PID.TID 0000.0001) %MON trcstat_ptracer16_max        =   2.7246940703662403E-07
(PID.TID 0000.0001) %MON trcstat_ptracer16_min        =   1.1728603643845759E-09
(PID.TID 0000.0001) %MON trcstat_ptracer16_mean       =   7.8931834490194816E-08
(PID.TID 0000.0001) %MON trcstat_ptracer16_sd         =   9.6634605997272585E-08
(PID.TID 0000.0001) %MON trcstat_ptracer16_del2       =   0.0000000000000000E+00
(PID.TID 0000.0001) %MON trcstat_ptracer17_max        =   0.0000000000000000E+00
(PID.TID 0000.0001) %MON trcstat_ptracer17_min        =   0.0000000000000000E+00
(PID.TID 0000.0001) %MON trcstat_ptracer17_mean       =   0.0000000000000000E+00
(PID.TID 0000.0001) %MON trcstat_ptracer17_sd         =   0.0000000000000000E+00
(PID.TID 0000.0001) %MON trcstat_ptracer17_del2       =   0.0000000000000000E+00
(PID.TID 0000.0001) %MON trcstat_ptracer18_max        =   5.1134419627487659E-03
(PID.TID 0000.0001) %MON trcstat_ptracer18_min        =   0.0000000000000000E+00
(PID.TID 0000.0001) %MON trcstat_ptracer18_mean       =   2.1473529209187374E-04
(PID.TID 0000.0001) %MON trcstat_ptracer18_sd         =   9.2442155098050290E-04
(PID.TID 0000.0001) %MON trcstat_ptracer18_del2       =   0.0000000000000000E+00
(PID.TID 0000.0001) %MON trcstat_ptracer19_max        =   8.8153867181972601E-04
(PID.TID 0000.0001) %MON trcstat_ptracer19_min        =   0.0000000000000000E+00
(PID.TID 0000.0001) %MON trcstat_ptracer19_mean       =   2.6284899836225204E-05
(PID.TID 0000.0001) %MON trcstat_ptracer19_sd         =   1.3780694875415342E-04
(PID.TID 0000.0001) %MON trcstat_ptracer19_del2       =   0.0000000000000000E+00
(PID.TID 0000.0001) %MON trcstat_ptracer20_max        =   8.8153867181972601E-04
(PID.TID 0000.0001) %MON trcstat_ptracer20_min        =   0.0000000000000000E+00
(PID.TID 0000.0001) %MON trcstat_ptracer20_mean       =   2.6284899836225204E-05
(PID.TID 0000.0001) %MON trcstat_ptracer20_sd         =   1.3780694875415342E-04
(PID.TID 0000.0001) %MON trcstat_ptracer20_del2       =   0.0000000000000000E+00
(PID.TID 0000.0001) %MON trcstat_ptracer21_max        =   8.8153867181972601E-04
(PID.TID 0000.0001) %MON trcstat_ptracer21_min        =   0.0000000000000000E+00
(PID.TID 0000.0001) %MON trcstat_ptracer21_mean       =   2.6284899836225204E-05
(PID.TID 0000.0001) %MON trcstat_ptracer21_sd         =   1.3780694875415342E-04
(PID.TID 0000.0001) %MON trcstat_ptracer21_del2       =   0.0000000000000000E+00
(PID.TID 0000.0001) %MON trcstat_ptracer22_max        =   8.8153867181972601E-04
(PID.TID 0000.0001) %MON trcstat_ptracer22_min        =   0.0000000000000000E+00
(PID.TID 0000.0001) %MON trcstat_ptracer22_mean       =   2.6284899836225204E-05
(PID.TID 0000.0001) %MON trcstat_ptracer22_sd         =   1.3780694875415342E-04
(PID.TID 0000.0001) %MON trcstat_ptracer22_del2       =   0.0000000000000000E+00
(PID.TID 0000.0001) %MON trcstat_ptracer23_max        =   8.8153867181972601E-04
(PID.TID 0000.0001) %MON trcstat_ptracer23_min        =   0.0000000000000000E+00
(PID.TID 0000.0001) %MON trcstat_ptracer23_mean       =   2.6284899836225204E-05
(PID.TID 0000.0001) %MON trcstat_ptracer23_sd         =   1.3780694875415342E-04
(PID.TID 0000.0001) %MON trcstat_ptracer23_del2       =   0.0000000000000000E+00
(PID.TID 0000.0001) %MON trcstat_ptracer24_max        =   8.8153867181972601E-04
(PID.TID 0000.0001) %MON trcstat_ptracer24_min        =   0.0000000000000000E+00
(PID.TID 0000.0001) %MON trcstat_ptracer24_mean       =   2.6284899836225204E-05
(PID.TID 0000.0001) %MON trcstat_ptracer24_sd         =   1.3780694875415342E-04
(PID.TID 0000.0001) %MON trcstat_ptracer24_del2       =   0.0000000000000000E+00
(PID.TID 0000.0001) %MON trcstat_ptracer25_max        =   8.8153867181972601E-04
(PID.TID 0000.0001) %MON trcstat_ptracer25_min        =   0.0000000000000000E+00
(PID.TID 0000.0001) %MON trcstat_ptracer25_mean       =   2.6284899836225204E-05
(PID.TID 0000.0001) %MON trcstat_ptracer25_sd         =   1.3780694875415342E-04
(PID.TID 0000.0001) %MON trcstat_ptracer25_del2       =   0.0000000000000000E+00
(PID.TID 0000.0001) %MON trcstat_ptracer26_max        =   8.8153867181972601E-04
(PID.TID 0000.0001) %MON trcstat_ptracer26_min        =   0.0000000000000000E+00
(PID.TID 0000.0001) %MON trcstat_ptracer26_mean       =   2.6284899836225204E-05
(PID.TID 0000.0001) %MON trcstat_ptracer26_sd         =   1.3780694875415342E-04
(PID.TID 0000.0001) %MON trcstat_ptracer26_del2       =   0.0000000000000000E+00
(PID.TID 0000.0001) %MON trcstat_ptracer27_max        =   8.8153867181972601E-04
(PID.TID 0000.0001) %MON trcstat_ptracer27_min        =   0.0000000000000000E+00
(PID.TID 0000.0001) %MON trcstat_ptracer27_mean       =   2.6284899836225204E-05
(PID.TID 0000.0001) %MON trcstat_ptracer27_sd         =   1.3780694875415342E-04
(PID.TID 0000.0001) %MON trcstat_ptracer27_del2       =   0.0000000000000000E+00
(PID.TID 0000.0001) %MON trcstat_ptracer28_max        =   8.8153867181972601E-04
(PID.TID 0000.0001) %MON trcstat_ptracer28_min        =   0.0000000000000000E+00
(PID.TID 0000.0001) %MON trcstat_ptracer28_mean       =   2.6284899836225204E-05
(PID.TID 0000.0001) %MON trcstat_ptracer28_sd         =   1.3780694875415342E-04
(PID.TID 0000.0001) %MON trcstat_ptracer28_del2       =   0.0000000000000000E+00
(PID.TID 0000.0001) %MON trcstat_ptracer29_max        =   8.8153867181972601E-04
(PID.TID 0000.0001) %MON trcstat_ptracer29_min        =   0.0000000000000000E+00
(PID.TID 0000.0001) %MON trcstat_ptracer29_mean       =   2.6284899836225204E-05
(PID.TID 0000.0001) %MON trcstat_ptracer29_sd         =   1.3780694875415342E-04
(PID.TID 0000.0001) %MON trcstat_ptracer29_del2       =   0.0000000000000000E+00
(PID.TID 0000.0001) %MON trcstat_ptracer30_max        =   8.8153867181972601E-04
(PID.TID 0000.0001) %MON trcstat_ptracer30_min        =   0.0000000000000000E+00
(PID.TID 0000.0001) %MON trcstat_ptracer30_mean       =   2.6284899836225204E-05
(PID.TID 0000.0001) %MON trcstat_ptracer30_sd         =   1.3780694875415342E-04
(PID.TID 0000.0001) %MON trcstat_ptracer30_del2       =   0.0000000000000000E+00
(PID.TID 0000.0001) %MON trcstat_ptracer31_max        =   8.8153867181972601E-04
(PID.TID 0000.0001) %MON trcstat_ptracer31_min        =   0.0000000000000000E+00
(PID.TID 0000.0001) %MON trcstat_ptracer31_mean       =   2.6284899836225204E-05
(PID.TID 0000.0001) %MON trcstat_ptracer31_sd         =   1.3780694875415342E-04
(PID.TID 0000.0001) %MON trcstat_ptracer31_del2       =   0.0000000000000000E+00
(PID.TID 0000.0001) %MON trcstat_ptracer32_max        =   8.8153867181972601E-04
(PID.TID 0000.0001) %MON trcstat_ptracer32_min        =   0.0000000000000000E+00
(PID.TID 0000.0001) %MON trcstat_ptracer32_mean       =   2.6284899836225204E-05
(PID.TID 0000.0001) %MON trcstat_ptracer32_sd         =   1.3780694875415342E-04
(PID.TID 0000.0001) %MON trcstat_ptracer32_del2       =   0.0000000000000000E+00
(PID.TID 0000.0001) %MON trcstat_ptracer33_max        =   8.8153867181972601E-04
(PID.TID 0000.0001) %MON trcstat_ptracer33_min        =   0.0000000000000000E+00
(PID.TID 0000.0001) %MON trcstat_ptracer33_mean       =   2.6284899836225204E-05
(PID.TID 0000.0001) %MON trcstat_ptracer33_sd         =   1.3780694875415342E-04
(PID.TID 0000.0001) %MON trcstat_ptracer33_del2       =   0.0000000000000000E+00
(PID.TID 0000.0001) %MON trcstat_ptracer34_max        =   8.8153867181972601E-04
(PID.TID 0000.0001) %MON trcstat_ptracer34_min        =   0.0000000000000000E+00
(PID.TID 0000.0001) %MON trcstat_ptracer34_mean       =   2.6284899836225204E-05
(PID.TID 0000.0001) %MON trcstat_ptracer34_sd         =   1.3780694875415342E-04
(PID.TID 0000.0001) %MON trcstat_ptracer34_del2       =   0.0000000000000000E+00
(PID.TID 0000.0001) %MON trcstat_ptracer35_max        =   8.8153867181972601E-04
(PID.TID 0000.0001) %MON trcstat_ptracer35_min        =   0.0000000000000000E+00
(PID.TID 0000.0001) %MON trcstat_ptracer35_mean       =   2.6284899836225204E-05
(PID.TID 0000.0001) %MON trcstat_ptracer35_sd         =   1.3780694875415342E-04
(PID.TID 0000.0001) %MON trcstat_ptracer35_del2       =   0.0000000000000000E+00
(PID.TID 0000.0001) %MON trcstat_ptracer36_max        =   8.8153867181972601E-04
(PID.TID 0000.0001) %MON trcstat_ptracer36_min        =   0.0000000000000000E+00
(PID.TID 0000.0001) %MON trcstat_ptracer36_mean       =   2.6284899836225204E-05
(PID.TID 0000.0001) %MON trcstat_ptracer36_sd         =   1.3780694875415342E-04
(PID.TID 0000.0001) %MON trcstat_ptracer36_del2       =   0.0000000000000000E+00
(PID.TID 0000.0001) %MON trcstat_ptracer37_max        =   8.8153867181972601E-04
(PID.TID 0000.0001) %MON trcstat_ptracer37_min        =   0.0000000000000000E+00
(PID.TID 0000.0001) %MON trcstat_ptracer37_mean       =   2.6284899836225204E-05
(PID.TID 0000.0001) %MON trcstat_ptracer37_sd         =   1.3780694875415342E-04
(PID.TID 0000.0001) %MON trcstat_ptracer37_del2       =   0.0000000000000000E+00
(PID.TID 0000.0001) %MON trcstat_ptracer38_max        =   8.8153867181972601E-04
(PID.TID 0000.0001) %MON trcstat_ptracer38_min        =   0.0000000000000000E+00
(PID.TID 0000.0001) %MON trcstat_ptracer38_mean       =   2.6284899836225204E-05
(PID.TID 0000.0001) %MON trcstat_ptracer38_sd         =   1.3780694875415342E-04
(PID.TID 0000.0001) %MON trcstat_ptracer38_del2       =   0.0000000000000000E+00
(PID.TID 0000.0001) %MON trcstat_ptracer39_max        =   8.8153867181972601E-04
(PID.TID 0000.0001) %MON trcstat_ptracer39_min        =   0.0000000000000000E+00
(PID.TID 0000.0001) %MON trcstat_ptracer39_mean       =   2.6284899836225204E-05
(PID.TID 0000.0001) %MON trcstat_ptracer39_sd         =   1.3780694875415342E-04
(PID.TID 0000.0001) %MON trcstat_ptracer39_del2       =   0.0000000000000000E+00
(PID.TID 0000.0001) %MON trcstat_ptracer40_max        =   8.8153867181972601E-04
(PID.TID 0000.0001) %MON trcstat_ptracer40_min        =   0.0000000000000000E+00
(PID.TID 0000.0001) %MON trcstat_ptracer40_mean       =   2.6284899836225204E-05
(PID.TID 0000.0001) %MON trcstat_ptracer40_sd         =   1.3780694875415342E-04
(PID.TID 0000.0001) %MON trcstat_ptracer40_del2       =   0.0000000000000000E+00
(PID.TID 0000.0001) %MON trcstat_ptracer41_max        =   8.8153867181972601E-04
(PID.TID 0000.0001) %MON trcstat_ptracer41_min        =   0.0000000000000000E+00
(PID.TID 0000.0001) %MON trcstat_ptracer41_mean       =   2.6284899836225204E-05
(PID.TID 0000.0001) %MON trcstat_ptracer41_sd         =   1.3780694875415342E-04
(PID.TID 0000.0001) %MON trcstat_ptracer41_del2       =   0.0000000000000000E+00
(PID.TID 0000.0001) %MON trcstat_ptracer42_max        =   8.8153867181972601E-04
(PID.TID 0000.0001) %MON trcstat_ptracer42_min        =   0.0000000000000000E+00
(PID.TID 0000.0001) %MON trcstat_ptracer42_mean       =   2.6284899836225204E-05
(PID.TID 0000.0001) %MON trcstat_ptracer42_sd         =   1.3780694875415342E-04
(PID.TID 0000.0001) %MON trcstat_ptracer42_del2       =   0.0000000000000000E+00
(PID.TID 0000.0001) %MON trcstat_ptracer43_max        =   8.8153867181972601E-04
(PID.TID 0000.0001) %MON trcstat_ptracer43_min        =   0.0000000000000000E+00
(PID.TID 0000.0001) %MON trcstat_ptracer43_mean       =   2.6284899836225204E-05
(PID.TID 0000.0001) %MON trcstat_ptracer43_sd         =   1.3780694875415342E-04
(PID.TID 0000.0001) %MON trcstat_ptracer43_del2       =   0.0000000000000000E+00
(PID.TID 0000.0001) %MON trcstat_ptracer44_max        =   8.8153867181972601E-04
(PID.TID 0000.0001) %MON trcstat_ptracer44_min        =   0.0000000000000000E+00
(PID.TID 0000.0001) %MON trcstat_ptracer44_mean       =   2.6284899836225204E-05
(PID.TID 0000.0001) %MON trcstat_ptracer44_sd         =   1.3780694875415342E-04
(PID.TID 0000.0001) %MON trcstat_ptracer44_del2       =   0.0000000000000000E+00
(PID.TID 0000.0001) %MON trcstat_ptracer45_max        =   8.8153867181972601E-04
(PID.TID 0000.0001) %MON trcstat_ptracer45_min        =   0.0000000000000000E+00
(PID.TID 0000.0001) %MON trcstat_ptracer45_mean       =   2.6284899836225204E-05
(PID.TID 0000.0001) %MON trcstat_ptracer45_sd         =   1.3780694875415342E-04
(PID.TID 0000.0001) %MON trcstat_ptracer45_del2       =   0.0000000000000000E+00
(PID.TID 0000.0001) %MON trcstat_ptracer46_max        =   8.8153867181972601E-04
(PID.TID 0000.0001) %MON trcstat_ptracer46_min        =   0.0000000000000000E+00
(PID.TID 0000.0001) %MON trcstat_ptracer46_mean       =   2.6284899836225204E-05
(PID.TID 0000.0001) %MON trcstat_ptracer46_sd         =   1.3780694875415342E-04
(PID.TID 0000.0001) %MON trcstat_ptracer46_del2       =   0.0000000000000000E+00
(PID.TID 0000.0001) %MON trcstat_ptracer47_max        =   8.8153867181972601E-04
(PID.TID 0000.0001) %MON trcstat_ptracer47_min        =   0.0000000000000000E+00
(PID.TID 0000.0001) %MON trcstat_ptracer47_mean       =   2.6284899836225204E-05
(PID.TID 0000.0001) %MON trcstat_ptracer47_sd         =   1.3780694875415342E-04
(PID.TID 0000.0001) %MON trcstat_ptracer47_del2       =   0.0000000000000000E+00
(PID.TID 0000.0001) %MON trcstat_ptracer48_max        =   8.8153867181972601E-04
(PID.TID 0000.0001) %MON trcstat_ptracer48_min        =   0.0000000000000000E+00
(PID.TID 0000.0001) %MON trcstat_ptracer48_mean       =   2.6284899836225204E-05
(PID.TID 0000.0001) %MON trcstat_ptracer48_sd         =   1.3780694875415342E-04
(PID.TID 0000.0001) %MON trcstat_ptracer48_del2       =   0.0000000000000000E+00
(PID.TID 0000.0001) %MON trcstat_ptracer49_max        =   8.8153867181972601E-04
(PID.TID 0000.0001) %MON trcstat_ptracer49_min        =   0.0000000000000000E+00
(PID.TID 0000.0001) %MON trcstat_ptracer49_mean       =   2.6284899836225204E-05
(PID.TID 0000.0001) %MON trcstat_ptracer49_sd         =   1.3780694875415342E-04
(PID.TID 0000.0001) %MON trcstat_ptracer49_del2       =   0.0000000000000000E+00
(PID.TID 0000.0001) %MON trcstat_ptracer50_max        =   8.8153867181972601E-04
(PID.TID 0000.0001) %MON trcstat_ptracer50_min        =   0.0000000000000000E+00
(PID.TID 0000.0001) %MON trcstat_ptracer50_mean       =   2.6284899836225204E-05
(PID.TID 0000.0001) %MON trcstat_ptracer50_sd         =   1.3780694875415342E-04
(PID.TID 0000.0001) %MON trcstat_ptracer50_del2       =   0.0000000000000000E+00
(PID.TID 0000.0001) %MON trcstat_ptracer51_max        =   8.8153867181972601E-04
(PID.TID 0000.0001) %MON trcstat_ptracer51_min        =   0.0000000000000000E+00
(PID.TID 0000.0001) %MON trcstat_ptracer51_mean       =   2.6284899836225204E-05
(PID.TID 0000.0001) %MON trcstat_ptracer51_sd         =   1.3780694875415342E-04
(PID.TID 0000.0001) %MON trcstat_ptracer51_del2       =   0.0000000000000000E+00
(PID.TID 0000.0001) %MON trcstat_ptracer52_max        =   8.8153867181972601E-04
(PID.TID 0000.0001) %MON trcstat_ptracer52_min        =   0.0000000000000000E+00
(PID.TID 0000.0001) %MON trcstat_ptracer52_mean       =   2.6284899836225204E-05
(PID.TID 0000.0001) %MON trcstat_ptracer52_sd         =   1.3780694875415342E-04
(PID.TID 0000.0001) %MON trcstat_ptracer52_del2       =   0.0000000000000000E+00
(PID.TID 0000.0001) %MON trcstat_ptracer53_max        =   8.8153867181972601E-04
(PID.TID 0000.0001) %MON trcstat_ptracer53_min        =   0.0000000000000000E+00
(PID.TID 0000.0001) %MON trcstat_ptracer53_mean       =   2.6284899836225204E-05
(PID.TID 0000.0001) %MON trcstat_ptracer53_sd         =   1.3780694875415342E-04
(PID.TID 0000.0001) %MON trcstat_ptracer53_del2       =   0.0000000000000000E+00
(PID.TID 0000.0001) %MON trcstat_ptracer54_max        =   8.8153867181972601E-04
(PID.TID 0000.0001) %MON trcstat_ptracer54_min        =   0.0000000000000000E+00
(PID.TID 0000.0001) %MON trcstat_ptracer54_mean       =   2.6284899836225204E-05
(PID.TID 0000.0001) %MON trcstat_ptracer54_sd         =   1.3780694875415342E-04
(PID.TID 0000.0001) %MON trcstat_ptracer54_del2       =   0.0000000000000000E+00
(PID.TID 0000.0001) %MON trcstat_ptracer55_max        =   8.8153867181972601E-04
(PID.TID 0000.0001) %MON trcstat_ptracer55_min        =   0.0000000000000000E+00
(PID.TID 0000.0001) %MON trcstat_ptracer55_mean       =   2.6284899836225204E-05
(PID.TID 0000.0001) %MON trcstat_ptracer55_sd         =   1.3780694875415342E-04
(PID.TID 0000.0001) %MON trcstat_ptracer55_del2       =   0.0000000000000000E+00
(PID.TID 0000.0001) %MON trcstat_ptracer56_max        =   8.8153867181972601E-04
(PID.TID 0000.0001) %MON trcstat_ptracer56_min        =   0.0000000000000000E+00
(PID.TID 0000.0001) %MON trcstat_ptracer56_mean       =   2.6284899836225204E-05
(PID.TID 0000.0001) %MON trcstat_ptracer56_sd         =   1.3780694875415342E-04
(PID.TID 0000.0001) %MON trcstat_ptracer56_del2       =   0.0000000000000000E+00
(PID.TID 0000.0001) %MON trcstat_ptracer57_max        =   8.8153867181972601E-04
(PID.TID 0000.0001) %MON trcstat_ptracer57_min        =   0.0000000000000000E+00
(PID.TID 0000.0001) %MON trcstat_ptracer57_mean       =   2.6284899836225204E-05
(PID.TID 0000.0001) %MON trcstat_ptracer57_sd         =   1.3780694875415342E-04
(PID.TID 0000.0001) %MON trcstat_ptracer57_del2       =   0.0000000000000000E+00
(PID.TID 0000.0001) %MON trcstat_ptracer58_max        =   8.8153867181972601E-04
(PID.TID 0000.0001) %MON trcstat_ptracer58_min        =   0.0000000000000000E+00
(PID.TID 0000.0001) %MON trcstat_ptracer58_mean       =   2.6284899836225204E-05
(PID.TID 0000.0001) %MON trcstat_ptracer58_sd         =   1.3780694875415342E-04
(PID.TID 0000.0001) %MON trcstat_ptracer58_del2       =   0.0000000000000000E+00
(PID.TID 0000.0001) %MON trcstat_ptracer59_max        =   8.8153867181972601E-04
(PID.TID 0000.0001) %MON trcstat_ptracer59_min        =   0.0000000000000000E+00
(PID.TID 0000.0001) %MON trcstat_ptracer59_mean       =   2.6284899836225204E-05
(PID.TID 0000.0001) %MON trcstat_ptracer59_sd         =   1.3780694875415342E-04
(PID.TID 0000.0001) %MON trcstat_ptracer59_del2       =   0.0000000000000000E+00
(PID.TID 0000.0001) %MON trcstat_ptracer60_max        =   8.8153867181972601E-04
(PID.TID 0000.0001) %MON trcstat_ptracer60_min        =   0.0000000000000000E+00
(PID.TID 0000.0001) %MON trcstat_ptracer60_mean       =   2.6284899836225204E-05
(PID.TID 0000.0001) %MON trcstat_ptracer60_sd         =   1.3780694875415342E-04
(PID.TID 0000.0001) %MON trcstat_ptracer60_del2       =   0.0000000000000000E+00
(PID.TID 0000.0001) %MON trcstat_ptracer61_max        =   8.8153867181972601E-04
(PID.TID 0000.0001) %MON trcstat_ptracer61_min        =   0.0000000000000000E+00
(PID.TID 0000.0001) %MON trcstat_ptracer61_mean       =   2.6284899836225204E-05
(PID.TID 0000.0001) %MON trcstat_ptracer61_sd         =   1.3780694875415342E-04
(PID.TID 0000.0001) %MON trcstat_ptracer61_del2       =   0.0000000000000000E+00
(PID.TID 0000.0001) %MON trcstat_ptracer62_max        =   8.8153867181972601E-04
(PID.TID 0000.0001) %MON trcstat_ptracer62_min        =   0.0000000000000000E+00
(PID.TID 0000.0001) %MON trcstat_ptracer62_mean       =   2.6284899836225204E-05
(PID.TID 0000.0001) %MON trcstat_ptracer62_sd         =   1.3780694875415342E-04
(PID.TID 0000.0001) %MON trcstat_ptracer62_del2       =   0.0000000000000000E+00
(PID.TID 0000.0001) %MON trcstat_ptracer63_max        =   8.8153867181972601E-04
(PID.TID 0000.0001) %MON trcstat_ptracer63_min        =   0.0000000000000000E+00
(PID.TID 0000.0001) %MON trcstat_ptracer63_mean       =   2.6284899836225204E-05
(PID.TID 0000.0001) %MON trcstat_ptracer63_sd         =   1.3780694875415342E-04
(PID.TID 0000.0001) %MON trcstat_ptracer63_del2       =   0.0000000000000000E+00
(PID.TID 0000.0001) %MON trcstat_ptracer64_max        =   8.8153867181972601E-04
(PID.TID 0000.0001) %MON trcstat_ptracer64_min        =   0.0000000000000000E+00
(PID.TID 0000.0001) %MON trcstat_ptracer64_mean       =   2.6284899836225204E-05
(PID.TID 0000.0001) %MON trcstat_ptracer64_sd         =   1.3780694875415342E-04
(PID.TID 0000.0001) %MON trcstat_ptracer64_del2       =   0.0000000000000000E+00
(PID.TID 0000.0001) %MON trcstat_ptracer65_max        =   8.8153867181972601E-04
(PID.TID 0000.0001) %MON trcstat_ptracer65_min        =   0.0000000000000000E+00
(PID.TID 0000.0001) %MON trcstat_ptracer65_mean       =   2.6284899836225204E-05
(PID.TID 0000.0001) %MON trcstat_ptracer65_sd         =   1.3780694875415342E-04
(PID.TID 0000.0001) %MON trcstat_ptracer65_del2       =   0.0000000000000000E+00
(PID.TID 0000.0001) %MON trcstat_ptracer66_max        =   8.8153867181972601E-04
(PID.TID 0000.0001) %MON trcstat_ptracer66_min        =   0.0000000000000000E+00
(PID.TID 0000.0001) %MON trcstat_ptracer66_mean       =   2.6284899836225204E-05
(PID.TID 0000.0001) %MON trcstat_ptracer66_sd         =   1.3780694875415342E-04
(PID.TID 0000.0001) %MON trcstat_ptracer66_del2       =   0.0000000000000000E+00
(PID.TID 0000.0001) %MON trcstat_ptracer67_max        =   8.8153867181972601E-04
(PID.TID 0000.0001) %MON trcstat_ptracer67_min        =   0.0000000000000000E+00
(PID.TID 0000.0001) %MON trcstat_ptracer67_mean       =   2.6284899836225204E-05
(PID.TID 0000.0001) %MON trcstat_ptracer67_sd         =   1.3780694875415342E-04
(PID.TID 0000.0001) %MON trcstat_ptracer67_del2       =   0.0000000000000000E+00
(PID.TID 0000.0001) %MON trcstat_ptracer68_max        =   8.8153867181972601E-04
(PID.TID 0000.0001) %MON trcstat_ptracer68_min        =   0.0000000000000000E+00
(PID.TID 0000.0001) %MON trcstat_ptracer68_mean       =   2.6284899836225204E-05
(PID.TID 0000.0001) %MON trcstat_ptracer68_sd         =   1.3780694875415342E-04
(PID.TID 0000.0001) %MON trcstat_ptracer68_del2       =   0.0000000000000000E+00
(PID.TID 0000.0001) %MON trcstat_ptracer69_max        =   8.8153867181972601E-04
(PID.TID 0000.0001) %MON trcstat_ptracer69_min        =   0.0000000000000000E+00
(PID.TID 0000.0001) %MON trcstat_ptracer69_mean       =   2.6284899836225204E-05
(PID.TID 0000.0001) %MON trcstat_ptracer69_sd         =   1.3780694875415342E-04
(PID.TID 0000.0001) %MON trcstat_ptracer69_del2       =   0.0000000000000000E+00
(PID.TID 0000.0001) %MON trcstat_ptracer70_max        =   8.8153867181972601E-04
(PID.TID 0000.0001) %MON trcstat_ptracer70_min        =   0.0000000000000000E+00
(PID.TID 0000.0001) %MON trcstat_ptracer70_mean       =   2.6284899836225204E-05
(PID.TID 0000.0001) %MON trcstat_ptracer70_sd         =   1.3780694875415342E-04
(PID.TID 0000.0001) %MON trcstat_ptracer70_del2       =   0.0000000000000000E+00
(PID.TID 0000.0001) %MON trcstat_ptracer71_max        =   8.8153867181972601E-04
(PID.TID 0000.0001) %MON trcstat_ptracer71_min        =   0.0000000000000000E+00
(PID.TID 0000.0001) %MON trcstat_ptracer71_mean       =   2.6284899836225204E-05
(PID.TID 0000.0001) %MON trcstat_ptracer71_sd         =   1.3780694875415342E-04
(PID.TID 0000.0001) %MON trcstat_ptracer71_del2       =   0.0000000000000000E+00
(PID.TID 0000.0001) %MON trcstat_ptracer72_max        =   8.8153867181972601E-04
(PID.TID 0000.0001) %MON trcstat_ptracer72_min        =   0.0000000000000000E+00
(PID.TID 0000.0001) %MON trcstat_ptracer72_mean       =   2.6284899836225204E-05
(PID.TID 0000.0001) %MON trcstat_ptracer72_sd         =   1.3780694875415342E-04
(PID.TID 0000.0001) %MON trcstat_ptracer72_del2       =   0.0000000000000000E+00
(PID.TID 0000.0001) %MON trcstat_ptracer73_max        =   8.8153867181972601E-04
(PID.TID 0000.0001) %MON trcstat_ptracer73_min        =   0.0000000000000000E+00
(PID.TID 0000.0001) %MON trcstat_ptracer73_mean       =   2.6284899836225204E-05
(PID.TID 0000.0001) %MON trcstat_ptracer73_sd         =   1.3780694875415342E-04
(PID.TID 0000.0001) %MON trcstat_ptracer73_del2       =   0.0000000000000000E+00
(PID.TID 0000.0001) %MON trcstat_ptracer74_max        =   8.8153867181972601E-04
(PID.TID 0000.0001) %MON trcstat_ptracer74_min        =   0.0000000000000000E+00
(PID.TID 0000.0001) %MON trcstat_ptracer74_mean       =   2.6284899836225204E-05
(PID.TID 0000.0001) %MON trcstat_ptracer74_sd         =   1.3780694875415342E-04
(PID.TID 0000.0001) %MON trcstat_ptracer74_del2       =   0.0000000000000000E+00
(PID.TID 0000.0001) %MON trcstat_ptracer75_max        =   8.8153867181972601E-04
(PID.TID 0000.0001) %MON trcstat_ptracer75_min        =   0.0000000000000000E+00
(PID.TID 0000.0001) %MON trcstat_ptracer75_mean       =   2.6284899836225204E-05
(PID.TID 0000.0001) %MON trcstat_ptracer75_sd         =   1.3780694875415342E-04
(PID.TID 0000.0001) %MON trcstat_ptracer75_del2       =   0.0000000000000000E+00
(PID.TID 0000.0001) %MON trcstat_ptracer76_max        =   8.8153867181972601E-04
(PID.TID 0000.0001) %MON trcstat_ptracer76_min        =   0.0000000000000000E+00
(PID.TID 0000.0001) %MON trcstat_ptracer76_mean       =   2.6284899836225204E-05
(PID.TID 0000.0001) %MON trcstat_ptracer76_sd         =   1.3780694875415342E-04
(PID.TID 0000.0001) %MON trcstat_ptracer76_del2       =   0.0000000000000000E+00
(PID.TID 0000.0001) %MON trcstat_ptracer77_max        =   8.8153867181972601E-04
(PID.TID 0000.0001) %MON trcstat_ptracer77_min        =   0.0000000000000000E+00
(PID.TID 0000.0001) %MON trcstat_ptracer77_mean       =   2.6284899836225204E-05
(PID.TID 0000.0001) %MON trcstat_ptracer77_sd         =   1.3780694875415342E-04
(PID.TID 0000.0001) %MON trcstat_ptracer77_del2       =   0.0000000000000000E+00
(PID.TID 0000.0001) %MON trcstat_ptracer78_max        =   8.8153867181972601E-04
(PID.TID 0000.0001) %MON trcstat_ptracer78_min        =   0.0000000000000000E+00
(PID.TID 0000.0001) %MON trcstat_ptracer78_mean       =   2.6284899836225204E-05
(PID.TID 0000.0001) %MON trcstat_ptracer78_sd         =   1.3780694875415342E-04
(PID.TID 0000.0001) %MON trcstat_ptracer78_del2       =   0.0000000000000000E+00
(PID.TID 0000.0001) %MON trcstat_ptracer79_max        =   8.8153867181972601E-04
(PID.TID 0000.0001) %MON trcstat_ptracer79_min        =   0.0000000000000000E+00
(PID.TID 0000.0001) %MON trcstat_ptracer79_mean       =   2.6284899836225204E-05
(PID.TID 0000.0001) %MON trcstat_ptracer79_sd         =   1.3780694875415342E-04
(PID.TID 0000.0001) %MON trcstat_ptracer79_del2       =   0.0000000000000000E+00
(PID.TID 0000.0001) %MON trcstat_ptracer80_max        =   8.8153867181972601E-04
(PID.TID 0000.0001) %MON trcstat_ptracer80_min        =   0.0000000000000000E+00
(PID.TID 0000.0001) %MON trcstat_ptracer80_mean       =   2.6284899836225204E-05
(PID.TID 0000.0001) %MON trcstat_ptracer80_sd         =   1.3780694875415342E-04
(PID.TID 0000.0001) %MON trcstat_ptracer80_del2       =   0.0000000000000000E+00
(PID.TID 0000.0001) %MON trcstat_ptracer81_max        =   8.8153867181972601E-04
(PID.TID 0000.0001) %MON trcstat_ptracer81_min        =   0.0000000000000000E+00
(PID.TID 0000.0001) %MON trcstat_ptracer81_mean       =   2.6284899836225204E-05
(PID.TID 0000.0001) %MON trcstat_ptracer81_sd         =   1.3780694875415342E-04
(PID.TID 0000.0001) %MON trcstat_ptracer81_del2       =   0.0000000000000000E+00
(PID.TID 0000.0001) %MON trcstat_ptracer82_max        =   8.8153867181972601E-04
(PID.TID 0000.0001) %MON trcstat_ptracer82_min        =   0.0000000000000000E+00
(PID.TID 0000.0001) %MON trcstat_ptracer82_mean       =   2.6284899836225204E-05
(PID.TID 0000.0001) %MON trcstat_ptracer82_sd         =   1.3780694875415342E-04
(PID.TID 0000.0001) %MON trcstat_ptracer82_del2       =   0.0000000000000000E+00
(PID.TID 0000.0001) %MON trcstat_ptracer83_max        =   8.8153867181972601E-04
(PID.TID 0000.0001) %MON trcstat_ptracer83_min        =   0.0000000000000000E+00
(PID.TID 0000.0001) %MON trcstat_ptracer83_mean       =   2.6284899836225204E-05
(PID.TID 0000.0001) %MON trcstat_ptracer83_sd         =   1.3780694875415342E-04
(PID.TID 0000.0001) %MON trcstat_ptracer83_del2       =   0.0000000000000000E+00
(PID.TID 0000.0001) %MON trcstat_ptracer84_max        =   8.8153867181972601E-04
(PID.TID 0000.0001) %MON trcstat_ptracer84_min        =   0.0000000000000000E+00
(PID.TID 0000.0001) %MON trcstat_ptracer84_mean       =   2.6284899836225204E-05
(PID.TID 0000.0001) %MON trcstat_ptracer84_sd         =   1.3780694875415342E-04
(PID.TID 0000.0001) %MON trcstat_ptracer84_del2       =   0.0000000000000000E+00
(PID.TID 0000.0001) %MON trcstat_ptracer85_max        =   8.8153867181972601E-04
(PID.TID 0000.0001) %MON trcstat_ptracer85_min        =   0.0000000000000000E+00
(PID.TID 0000.0001) %MON trcstat_ptracer85_mean       =   2.6284899836225204E-05
(PID.TID 0000.0001) %MON trcstat_ptracer85_sd         =   1.3780694875415342E-04
(PID.TID 0000.0001) %MON trcstat_ptracer85_del2       =   0.0000000000000000E+00
(PID.TID 0000.0001) %MON trcstat_ptracer86_max        =   8.8153867181972601E-04
(PID.TID 0000.0001) %MON trcstat_ptracer86_min        =   0.0000000000000000E+00
(PID.TID 0000.0001) %MON trcstat_ptracer86_mean       =   2.6284899836225204E-05
(PID.TID 0000.0001) %MON trcstat_ptracer86_sd         =   1.3780694875415342E-04
(PID.TID 0000.0001) %MON trcstat_ptracer86_del2       =   0.0000000000000000E+00
(PID.TID 0000.0001) %MON trcstat_ptracer87_max        =   8.8153867181972601E-04
(PID.TID 0000.0001) %MON trcstat_ptracer87_min        =   0.0000000000000000E+00
(PID.TID 0000.0001) %MON trcstat_ptracer87_mean       =   2.6284899836225204E-05
(PID.TID 0000.0001) %MON trcstat_ptracer87_sd         =   1.3780694875415342E-04
(PID.TID 0000.0001) %MON trcstat_ptracer87_del2       =   0.0000000000000000E+00
(PID.TID 0000.0001) %MON trcstat_ptracer88_max        =   8.8153867181972601E-04
(PID.TID 0000.0001) %MON trcstat_ptracer88_min        =   0.0000000000000000E+00
(PID.TID 0000.0001) %MON trcstat_ptracer88_mean       =   2.6284899836225204E-05
(PID.TID 0000.0001) %MON trcstat_ptracer88_sd         =   1.3780694875415342E-04
(PID.TID 0000.0001) %MON trcstat_ptracer88_del2       =   0.0000000000000000E+00
(PID.TID 0000.0001) %MON trcstat_ptracer89_max        =   8.8153867181972601E-04
(PID.TID 0000.0001) %MON trcstat_ptracer89_min        =   0.0000000000000000E+00
(PID.TID 0000.0001) %MON trcstat_ptracer89_mean       =   2.6284899836225204E-05
(PID.TID 0000.0001) %MON trcstat_ptracer89_sd         =   1.3780694875415342E-04
(PID.TID 0000.0001) %MON trcstat_ptracer89_del2       =   0.0000000000000000E+00
(PID.TID 0000.0001) %MON trcstat_ptracer90_max        =   8.8153867181972601E-04
(PID.TID 0000.0001) %MON trcstat_ptracer90_min        =   0.0000000000000000E+00
(PID.TID 0000.0001) %MON trcstat_ptracer90_mean       =   2.6284899836225204E-05
(PID.TID 0000.0001) %MON trcstat_ptracer90_sd         =   1.3780694875415342E-04
(PID.TID 0000.0001) %MON trcstat_ptracer90_del2       =   0.0000000000000000E+00
(PID.TID 0000.0001) %MON trcstat_ptracer91_max        =   8.8153867181972601E-04
(PID.TID 0000.0001) %MON trcstat_ptracer91_min        =   0.0000000000000000E+00
(PID.TID 0000.0001) %MON trcstat_ptracer91_mean       =   2.6284899836225204E-05
(PID.TID 0000.0001) %MON trcstat_ptracer91_sd         =   1.3780694875415342E-04
(PID.TID 0000.0001) %MON trcstat_ptracer91_del2       =   0.0000000000000000E+00
(PID.TID 0000.0001) %MON trcstat_ptracer92_max        =   8.8153867181972601E-04
(PID.TID 0000.0001) %MON trcstat_ptracer92_min        =   0.0000000000000000E+00
(PID.TID 0000.0001) %MON trcstat_ptracer92_mean       =   2.6284899836225204E-05
(PID.TID 0000.0001) %MON trcstat_ptracer92_sd         =   1.3780694875415342E-04
(PID.TID 0000.0001) %MON trcstat_ptracer92_del2       =   0.0000000000000000E+00
(PID.TID 0000.0001) %MON trcstat_ptracer93_max        =   8.8153867181972601E-04
(PID.TID 0000.0001) %MON trcstat_ptracer93_min        =   0.0000000000000000E+00
(PID.TID 0000.0001) %MON trcstat_ptracer93_mean       =   2.6284899836225204E-05
(PID.TID 0000.0001) %MON trcstat_ptracer93_sd         =   1.3780694875415342E-04
(PID.TID 0000.0001) %MON trcstat_ptracer93_del2       =   0.0000000000000000E+00
(PID.TID 0000.0001) %MON trcstat_ptracer94_max        =   8.8153867181972601E-04
(PID.TID 0000.0001) %MON trcstat_ptracer94_min        =   0.0000000000000000E+00
(PID.TID 0000.0001) %MON trcstat_ptracer94_mean       =   2.6284899836225204E-05
(PID.TID 0000.0001) %MON trcstat_ptracer94_sd         =   1.3780694875415342E-04
(PID.TID 0000.0001) %MON trcstat_ptracer94_del2       =   0.0000000000000000E+00
(PID.TID 0000.0001) %MON trcstat_ptracer95_max        =   8.8153867181972601E-04
(PID.TID 0000.0001) %MON trcstat_ptracer95_min        =   0.0000000000000000E+00
(PID.TID 0000.0001) %MON trcstat_ptracer95_mean       =   2.6284899836225204E-05
(PID.TID 0000.0001) %MON trcstat_ptracer95_sd         =   1.3780694875415342E-04
(PID.TID 0000.0001) %MON trcstat_ptracer95_del2       =   0.0000000000000000E+00
(PID.TID 0000.0001) %MON trcstat_ptracer96_max        =   8.8153867181972601E-04
(PID.TID 0000.0001) %MON trcstat_ptracer96_min        =   0.0000000000000000E+00
(PID.TID 0000.0001) %MON trcstat_ptracer96_mean       =   2.6284899836225204E-05
(PID.TID 0000.0001) %MON trcstat_ptracer96_sd         =   1.3780694875415342E-04
(PID.TID 0000.0001) %MON trcstat_ptracer96_del2       =   0.0000000000000000E+00
(PID.TID 0000.0001) %MON trcstat_ptracer97_max        =   1.2432850748922419E-07
(PID.TID 0000.0001) %MON trcstat_ptracer97_min        =   0.0000000000000000E+00
(PID.TID 0000.0001) %MON trcstat_ptracer97_mean       =   1.6442399905699558E-08
(PID.TID 0000.0001) %MON trcstat_ptracer97_sd         =   3.0074086738691414E-08
(PID.TID 0000.0001) %MON trcstat_ptracer97_del2       =   0.0000000000000000E+00
(PID.TID 0000.0001) %MON trcstat_ptracer98_max        =   1.2432850748922419E-07
(PID.TID 0000.0001) %MON trcstat_ptracer98_min        =   0.0000000000000000E+00
(PID.TID 0000.0001) %MON trcstat_ptracer98_mean       =   1.6442399905699558E-08
(PID.TID 0000.0001) %MON trcstat_ptracer98_sd         =   3.0074086738691414E-08
(PID.TID 0000.0001) %MON trcstat_ptracer98_del2       =   0.0000000000000000E+00
(PID.TID 0000.0001) // =======================================================
(PID.TID 0000.0001) // End MONITOR ptracers field statistics
(PID.TID 0000.0001) // =======================================================
(PID.TID 0000.0001) // =======================================================
(PID.TID 0000.0001) // Begin MONITOR EXF statistics
(PID.TID 0000.0001) // =======================================================
(PID.TID 0000.0001) %MON exf_tsnumber                 =                     0
(PID.TID 0000.0001) %MON exf_time_sec                 =   0.0000000000000000E+00
(PID.TID 0000.0001) %MON exf_ustress_max              =   0.0000000000000000E+00
(PID.TID 0000.0001) %MON exf_ustress_min              =   0.0000000000000000E+00
(PID.TID 0000.0001) %MON exf_ustress_mean             =   0.0000000000000000E+00
(PID.TID 0000.0001) %MON exf_ustress_sd               =   0.0000000000000000E+00
(PID.TID 0000.0001) %MON exf_ustress_del2             =   0.0000000000000000E+00
(PID.TID 0000.0001) %MON exf_vstress_max              =   0.0000000000000000E+00
(PID.TID 0000.0001) %MON exf_vstress_min              =   0.0000000000000000E+00
(PID.TID 0000.0001) %MON exf_vstress_mean             =   0.0000000000000000E+00
(PID.TID 0000.0001) %MON exf_vstress_sd               =   0.0000000000000000E+00
(PID.TID 0000.0001) %MON exf_vstress_del2             =   0.0000000000000000E+00
(PID.TID 0000.0001) %MON exf_hflux_max                =   0.0000000000000000E+00
(PID.TID 0000.0001) %MON exf_hflux_min                =   0.0000000000000000E+00
(PID.TID 0000.0001) %MON exf_hflux_mean               =   0.0000000000000000E+00
(PID.TID 0000.0001) %MON exf_hflux_sd                 =   0.0000000000000000E+00
(PID.TID 0000.0001) %MON exf_hflux_del2               =   0.0000000000000000E+00
(PID.TID 0000.0001) %MON exf_sflux_max                =   0.0000000000000000E+00
(PID.TID 0000.0001) %MON exf_sflux_min                =   0.0000000000000000E+00
(PID.TID 0000.0001) %MON exf_sflux_mean               =   0.0000000000000000E+00
(PID.TID 0000.0001) %MON exf_sflux_sd                 =   0.0000000000000000E+00
(PID.TID 0000.0001) %MON exf_sflux_del2               =   0.0000000000000000E+00
(PID.TID 0000.0001) %MON exf_uwind_max                =   0.0000000000000000E+00
(PID.TID 0000.0001) %MON exf_uwind_min                =   0.0000000000000000E+00
(PID.TID 0000.0001) %MON exf_uwind_mean               =   0.0000000000000000E+00
(PID.TID 0000.0001) %MON exf_uwind_sd                 =   0.0000000000000000E+00
(PID.TID 0000.0001) %MON exf_uwind_del2               =   0.0000000000000000E+00
(PID.TID 0000.0001) %MON exf_vwind_max                =   0.0000000000000000E+00
(PID.TID 0000.0001) %MON exf_vwind_min                =   0.0000000000000000E+00
(PID.TID 0000.0001) %MON exf_vwind_mean               =   0.0000000000000000E+00
(PID.TID 0000.0001) %MON exf_vwind_sd                 =   0.0000000000000000E+00
(PID.TID 0000.0001) %MON exf_vwind_del2               =   0.0000000000000000E+00
(PID.TID 0000.0001) %MON exf_wspeed_max               =   0.0000000000000000E+00
(PID.TID 0000.0001) %MON exf_wspeed_min               =   0.0000000000000000E+00
(PID.TID 0000.0001) %MON exf_wspeed_mean              =   0.0000000000000000E+00
(PID.TID 0000.0001) %MON exf_wspeed_sd                =   0.0000000000000000E+00
(PID.TID 0000.0001) %MON exf_wspeed_del2              =   0.0000000000000000E+00
(PID.TID 0000.0001) %MON exf_evap_max                 =   0.0000000000000000E+00
(PID.TID 0000.0001) %MON exf_evap_min                 =   0.0000000000000000E+00
(PID.TID 0000.0001) %MON exf_evap_mean                =   0.0000000000000000E+00
(PID.TID 0000.0001) %MON exf_evap_sd                  =   0.0000000000000000E+00
(PID.TID 0000.0001) %MON exf_evap_del2                =   0.0000000000000000E+00
(PID.TID 0000.0001) // =======================================================
(PID.TID 0000.0001) // End MONITOR EXF statistics
(PID.TID 0000.0001) // =======================================================
 EXTERNAL_FIELDS_LOAD, it=         0 : Reading new data, i0,i1=   12    1 (prev=   12    0 )
(PID.TID 0000.0001)  MDS_READ_FIELD: opening global file: ../input/input/loc1_temp_monsurf.bin
(PID.TID 0000.0001)  MDS_READ_FIELD: opening global file: ../input/input/loc1_temp_monsurf.bin
(PID.TID 0000.0001)  MDS_READ_FIELD: opening global file: ../input/input/loc1_oasim_edp01_below.bin
(PID.TID 0000.0001)  MDS_READ_FIELD: opening global file: ../input/input/loc1_oasim_edp01_below.bin
(PID.TID 0000.0001)  MDS_READ_FIELD: opening global file: ../input/input/loc1_oasim_esp01_below.bin
(PID.TID 0000.0001)  MDS_READ_FIELD: opening global file: ../input/input/loc1_oasim_esp01_below.bin
(PID.TID 0000.0001)  MDS_READ_FIELD: opening global file: ../input/input/loc1_oasim_edp02_below.bin
(PID.TID 0000.0001)  MDS_READ_FIELD: opening global file: ../input/input/loc1_oasim_edp02_below.bin
(PID.TID 0000.0001)  MDS_READ_FIELD: opening global file: ../input/input/loc1_oasim_esp02_below.bin
(PID.TID 0000.0001)  MDS_READ_FIELD: opening global file: ../input/input/loc1_oasim_esp02_below.bin
(PID.TID 0000.0001)  MDS_READ_FIELD: opening global file: ../input/input/loc1_oasim_edp03_below.bin
(PID.TID 0000.0001)  MDS_READ_FIELD: opening global file: ../input/input/loc1_oasim_edp03_below.bin
(PID.TID 0000.0001)  MDS_READ_FIELD: opening global file: ../input/input/loc1_oasim_esp03_below.bin
(PID.TID 0000.0001)  MDS_READ_FIELD: opening global file: ../input/input/loc1_oasim_esp03_below.bin
(PID.TID 0000.0001)  MDS_READ_FIELD: opening global file: ../input/input/loc1_oasim_edp04_below.bin
(PID.TID 0000.0001)  MDS_READ_FIELD: opening global file: ../input/input/loc1_oasim_edp04_below.bin
(PID.TID 0000.0001)  MDS_READ_FIELD: opening global file: ../input/input/loc1_oasim_esp04_below.bin
(PID.TID 0000.0001)  MDS_READ_FIELD: opening global file: ../input/input/loc1_oasim_esp04_below.bin
(PID.TID 0000.0001)  MDS_READ_FIELD: opening global file: ../input/input/loc1_oasim_edp05_below.bin
(PID.TID 0000.0001)  MDS_READ_FIELD: opening global file: ../input/input/loc1_oasim_edp05_below.bin
(PID.TID 0000.0001)  MDS_READ_FIELD: opening global file: ../input/input/loc1_oasim_esp05_below.bin
(PID.TID 0000.0001)  MDS_READ_FIELD: opening global file: ../input/input/loc1_oasim_esp05_below.bin
(PID.TID 0000.0001)  MDS_READ_FIELD: opening global file: ../input/input/loc1_oasim_edp06_below.bin
(PID.TID 0000.0001)  MDS_READ_FIELD: opening global file: ../input/input/loc1_oasim_edp06_below.bin
(PID.TID 0000.0001)  MDS_READ_FIELD: opening global file: ../input/input/loc1_oasim_esp06_below.bin
(PID.TID 0000.0001)  MDS_READ_FIELD: opening global file: ../input/input/loc1_oasim_esp06_below.bin
(PID.TID 0000.0001)  MDS_READ_FIELD: opening global file: ../input/input/loc1_oasim_edp07_below.bin
(PID.TID 0000.0001)  MDS_READ_FIELD: opening global file: ../input/input/loc1_oasim_edp07_below.bin
(PID.TID 0000.0001)  MDS_READ_FIELD: opening global file: ../input/input/loc1_oasim_esp07_below.bin
(PID.TID 0000.0001)  MDS_READ_FIELD: opening global file: ../input/input/loc1_oasim_esp07_below.bin
(PID.TID 0000.0001)  MDS_READ_FIELD: opening global file: ../input/input/loc1_oasim_edp08_below.bin
(PID.TID 0000.0001)  MDS_READ_FIELD: opening global file: ../input/input/loc1_oasim_edp08_below.bin
(PID.TID 0000.0001)  MDS_READ_FIELD: opening global file: ../input/input/loc1_oasim_esp08_below.bin
(PID.TID 0000.0001)  MDS_READ_FIELD: opening global file: ../input/input/loc1_oasim_esp08_below.bin
(PID.TID 0000.0001)  MDS_READ_FIELD: opening global file: ../input/input/loc1_oasim_edp09_below.bin
(PID.TID 0000.0001)  MDS_READ_FIELD: opening global file: ../input/input/loc1_oasim_edp09_below.bin
(PID.TID 0000.0001)  MDS_READ_FIELD: opening global file: ../input/input/loc1_oasim_esp09_below.bin
(PID.TID 0000.0001)  MDS_READ_FIELD: opening global file: ../input/input/loc1_oasim_esp09_below.bin
(PID.TID 0000.0001)  MDS_READ_FIELD: opening global file: ../input/input/loc1_oasim_edp10_below.bin
(PID.TID 0000.0001)  MDS_READ_FIELD: opening global file: ../input/input/loc1_oasim_edp10_below.bin
(PID.TID 0000.0001)  MDS_READ_FIELD: opening global file: ../input/input/loc1_oasim_esp10_below.bin
(PID.TID 0000.0001)  MDS_READ_FIELD: opening global file: ../input/input/loc1_oasim_esp10_below.bin
(PID.TID 0000.0001)  MDS_READ_FIELD: opening global file: ../input/input/loc1_oasim_edp11_below.bin
(PID.TID 0000.0001)  MDS_READ_FIELD: opening global file: ../input/input/loc1_oasim_edp11_below.bin
(PID.TID 0000.0001)  MDS_READ_FIELD: opening global file: ../input/input/loc1_oasim_esp11_below.bin
(PID.TID 0000.0001)  MDS_READ_FIELD: opening global file: ../input/input/loc1_oasim_esp11_below.bin
(PID.TID 0000.0001)  MDS_READ_FIELD: opening global file: ../input/input/loc1_oasim_edp12_below.bin
(PID.TID 0000.0001)  MDS_READ_FIELD: opening global file: ../input/input/loc1_oasim_edp12_below.bin
(PID.TID 0000.0001)  MDS_READ_FIELD: opening global file: ../input/input/loc1_oasim_esp12_below.bin
(PID.TID 0000.0001)  MDS_READ_FIELD: opening global file: ../input/input/loc1_oasim_esp12_below.bin
(PID.TID 0000.0001)  MDS_READ_FIELD: opening global file: ../input/input/loc1_oasim_edp13_below.bin
(PID.TID 0000.0001)  MDS_READ_FIELD: opening global file: ../input/input/loc1_oasim_edp13_below.bin
(PID.TID 0000.0001)  MDS_READ_FIELD: opening global file: ../input/input/loc1_oasim_esp13_below.bin
(PID.TID 0000.0001)  MDS_READ_FIELD: opening global file: ../input/input/loc1_oasim_esp13_below.bin
(PID.TID 0000.0001)  MDS_READ_FIELD: opening global file: ../input/input/loc1_FeFlux_monsurf.bin
(PID.TID 0000.0001)  MDS_READ_FIELD: opening global file: ../input/input/loc1_FeFlux_monsurf.bin
 Local pointing vectors
 no(2) =   0.27363063147685535      -0.12470066308196398       0.95371695074822704     
 ea(2) =   0.41469324265623930       0.90996127087654310        0.0000000000000000     
 up(2) =   0.86784548855935806      -0.39549997488200311      -0.30070579950427312     
 CDOM           1           1   5.1131943200453996E-003   100.00000000000000        2.0137527074704766     
 CDOM           1           2   5.1131943200453996E-003   100.00000000000000        1.4190675485932573     
 CDOM           1           3   5.1131943200453996E-003   100.00000000000000        1.0000000000000000     
 CDOM           1           4   5.1131943200453996E-003   100.00000000000000       0.70468808971871344     
 CDOM           1           5   5.1131943200453996E-003   100.00000000000000       0.49658530379140947     
 CDOM           1           6   5.1131943200453996E-003   100.00000000000000       0.34993774911115533     
 CDOM           1           7   5.1131943200453996E-003   100.00000000000000       0.24659696394160643     
 CDOM           1           8   5.1131943200453996E-003   100.00000000000000       0.17377394345044514     
 CDOM           1           9   5.1131943200453996E-003   100.00000000000000       0.12245642825298191     
 CDOM           1          10   5.1131943200453996E-003   100.00000000000000        8.6293586499370495E-002
 CDOM           1          11   5.1131943200453996E-003   100.00000000000000        6.0810062625217952E-002
 CDOM           1          12   5.1131943200453996E-003   100.00000000000000        4.2852126867040187E-002
 CDOM           1          13   5.1131943200453996E-003   100.00000000000000        3.0197383422318501E-002
 ac           1   0.0000000000000000        3.0400000000000000E-002
 ac           2   0.0000000000000000        3.8500000000000000E-002
 ac           3   0.0000000000000000        3.0400000000000000E-002
 ac           4   0.0000000000000000        3.0400000000000000E-002
 ac           5   0.0000000000000000        2.9200000000000000E-002
 ac           6   0.0000000000000000        3.8500000000000000E-002
 ac           7   0.0000000000000000        2.4500000000000001E-002
 ac           8   0.0000000000000000        2.4500000000000001E-002
 ac           9   0.0000000000000000        2.9200000000000000E-002
 ac          10   0.0000000000000000        2.9200000000000000E-002
 ac          11   0.0000000000000000        3.0400000000000000E-002
 ac          12   0.0000000000000000        2.4500000000000001E-002
 ac          13   0.0000000000000000        3.0400000000000000E-002
 ac          14   0.0000000000000000        2.4500000000000001E-002
 ac          15   0.0000000000000000        3.0400000000000000E-002
 ac          16   0.0000000000000000        3.0400000000000000E-002
 ac          17   0.0000000000000000        3.0400000000000000E-002
 ac          18   0.0000000000000000        2.9200000000000000E-002
 ac          19   0.0000000000000000        3.0400000000000000E-002
 ac          20   0.0000000000000000        3.0400000000000000E-002
 ac          21   0.0000000000000000        3.0400000000000000E-002
 ac          22   0.0000000000000000        3.0400000000000000E-002
 ac          23   0.0000000000000000        3.8500000000000000E-002
 ac          24   0.0000000000000000        3.0400000000000000E-002
 ac          25   0.0000000000000000        2.4500000000000001E-002
 ac          26   0.0000000000000000        2.4500000000000001E-002
 ac          27   0.0000000000000000        2.4500000000000001E-002
 ac          28   0.0000000000000000        3.8500000000000000E-002
 ac          29   0.0000000000000000        3.0400000000000000E-002
 ac          30   0.0000000000000000        2.9200000000000000E-002
 ac          31   0.0000000000000000        3.0400000000000000E-002
 ac          32   0.0000000000000000        3.0400000000000000E-002
 ac          33   0.0000000000000000        3.0400000000000000E-002
 ac          34   0.0000000000000000        2.9200000000000000E-002
 ac          35   0.0000000000000000        2.9200000000000000E-002
 ac          36   0.0000000000000000        3.0400000000000000E-002
 ac          37   0.0000000000000000        3.0400000000000000E-002
 ac          38   0.0000000000000000        3.0400000000000000E-002
 ac          39   0.0000000000000000        2.9200000000000000E-002
 ac          40   0.0000000000000000        3.0400000000000000E-002
 ac          41   0.0000000000000000        2.9200000000000000E-002
 ac          42   0.0000000000000000        3.0400000000000000E-002
 ac          43   0.0000000000000000        3.0400000000000000E-002
 ac          44   0.0000000000000000        3.0400000000000000E-002
 ac          45   0.0000000000000000        2.4500000000000001E-002
 ac          46   0.0000000000000000        3.0400000000000000E-002
 ac          47   0.0000000000000000        3.0400000000000000E-002
 ac          48   0.0000000000000000        3.0400000000000000E-002
 ac          49   0.0000000000000000        3.0400000000000000E-002
 ac          50   0.0000000000000000        3.0400000000000000E-002
 ac          51   0.0000000000000000        3.0400000000000000E-002
 ac          52   0.0000000000000000        3.0400000000000000E-002
 ac          53   0.0000000000000000        3.0400000000000000E-002
 ac          54   0.0000000000000000        3.0400000000000000E-002
 ac          55   0.0000000000000000        3.0400000000000000E-002
 ac          56   0.0000000000000000        3.0400000000000000E-002
 ac          57   0.0000000000000000        3.0400000000000000E-002
 ac          58   0.0000000000000000        3.0400000000000000E-002
 ac          59   0.0000000000000000        3.0400000000000000E-002
 ac          60   0.0000000000000000        3.0400000000000000E-002
 ac          61   0.0000000000000000        3.0400000000000000E-002
 ac          62   0.0000000000000000        3.0400000000000000E-002
 ac          63   0.0000000000000000        3.0400000000000000E-002
 ac          64   0.0000000000000000        2.9200000000000000E-002
 ac          65   0.0000000000000000        3.0400000000000000E-002
 ac          66   0.0000000000000000        3.8500000000000000E-002
 ac          67   0.0000000000000000        3.0400000000000000E-002
 ac          68   0.0000000000000000        3.0400000000000000E-002
 ac          69   0.0000000000000000        3.0400000000000000E-002
 ac          70   0.0000000000000000        3.8500000000000000E-002
 ac          71   0.0000000000000000        2.4500000000000001E-002
 ac          72   0.0000000000000000        3.0400000000000000E-002
 ac          73   0.0000000000000000        3.8500000000000000E-002
 ac          74   0.0000000000000000        3.0400000000000000E-002
 ac          75   0.0000000000000000        3.0400000000000000E-002
 ac          76   0.0000000000000000        3.0400000000000000E-002
 ac          77   0.0000000000000000        3.0400000000000000E-002
 ac          78   0.0000000000000000        2.4500000000000001E-002
 abs           1           1   1.0359742756302150        7.6564174801061992E-003   3.8003052185673746E-003   6.3000000000000000E-003   1.0296708905814087        0.0000000000000000        3.3850488063719284E-006
 abs           1           2  0.73069954529877668        5.8530988048058341E-003   2.9002872645339994E-003   5.1000000000000004E-003  0.72559681292277933        0.0000000000000000        2.7323759973002164E-006
 abs           1           3  0.51962160020573622        4.5470145667551656E-003   2.2502543488061451E-003   8.3000000000000001E-003  0.51131943200454000        0.0000000000000000        2.1682011962382288E-006
 abs           1           4  0.37222248373549710        3.6481207918552870E-003   1.8002603334839370E-003   1.1900000000000001E-002  0.36032071377533686        0.0000000000000000        1.7699601601944725E-006
 abs           1           5  0.27541514250680460        2.9459083416550438E-003   1.4502483641283537E-003   2.1499999999999998E-002  0.25391371547642544        0.0000000000000000        1.4270303791567935E-006
 abs           1           6  0.21963112158656731        2.3434746464347767E-003   1.1502351978372122E-003   4.0700000000000000E-002  0.17892997111246317        0.0000000000000000        1.1504741041264071E-006
 abs           1           7  0.18109075650932602        1.9414834412545580E-003   9.5022442541718721E-004   5.5000000000000000E-002  0.12608981953666623        0.0000000000000000        9.3697265980294882E-007
 abs           1           8  0.17375475957003994        1.6399347261143878E-003   8.0021604686827887E-004   8.4900000000000003E-002   8.8853994062270666E-002   0.0000000000000000        7.6550776928410929E-007
 abs           1           9  0.26211496750700020        1.4383860109742177E-003   7.0020766831937055E-004  0.19950000000000001        6.2614351339619415E-002   0.0000000000000000        6.1616738076770065E-007
 abs           1          10  0.32912408432956269        1.2369479183440596E-003   6.0019988823824136E-004  0.28499999999999998        4.4123587634492763E-002   0.0000000000000000        4.9669506995457379E-007
 abs           1          11  0.38229376934762338        9.3495671316384083E-004   4.5018911581821638E-004  0.35120000000000001        3.1093366681686951E-002   0.0000000000000000        4.0266593644424244E-007
 abs           1          12  0.47781145482492132        7.3407173308374354E-004   3.5018432807598307E-004  0.45590000000000003        2.1911125169841478E-002   0.0000000000000000        3.2965507983622046E-007
 abs           1          13  0.65874077553977228        7.3307613049363417E-004   3.5017894186597056E-004  0.64329999999999998        1.5440508939523208E-002   0.0000000000000000        2.6660024912929240E-007
 CDOM           2           1   5.1134418241575294E-003   100.00000000000000        2.0137527074704766     
 CDOM           2           2   5.1134418241575294E-003   100.00000000000000        1.4190675485932573     
 CDOM           2           3   5.1134418241575294E-003   100.00000000000000        1.0000000000000000     
 CDOM           2           4   5.1134418241575294E-003   100.00000000000000       0.70468808971871344     
 CDOM           2           5   5.1134418241575294E-003   100.00000000000000       0.49658530379140947     
 CDOM           2           6   5.1134418241575294E-003   100.00000000000000       0.34993774911115533     
 CDOM           2           7   5.1134418241575294E-003   100.00000000000000       0.24659696394160643     
 CDOM           2           8   5.1134418241575294E-003   100.00000000000000       0.17377394345044514     
 CDOM           2           9   5.1134418241575294E-003   100.00000000000000       0.12245642825298191     
 CDOM           2          10   5.1134418241575294E-003   100.00000000000000        8.6293586499370495E-002
 CDOM           2          11   5.1134418241575294E-003   100.00000000000000        6.0810062625217952E-002
 CDOM           2          12   5.1134418241575294E-003   100.00000000000000        4.2852126867040187E-002
 CDOM           2          13   5.1134418241575294E-003   100.00000000000000        3.0197383422318501E-002
 abs           2           1   1.0360247860116580        7.6675703776371840E-003   3.8003655557430171E-003   6.3000000000000000E-003   1.0297207317889998        0.0000000000000000        4.0542226582310375E-006
 abs           2           2  0.73073520795427860        5.8635956495408786E-003   2.9003440524640158E-003   5.1000000000000004E-003  0.72563193542814597        0.0000000000000000        3.2725261326243996E-006
 abs           2           3  0.51964677923810920        4.5563086480309859E-003   2.2503046297858475E-003   8.3000000000000001E-003  0.51134418241575297        0.0000000000000000        2.5968223562525603E-006
 abs           2           4  0.37224027495031903        3.6576335573964215E-003   1.8003117975455146E-003   1.1900000000000001E-002  0.36033815509533429        0.0000000000000000        2.1198549846959676E-006
 abs           2           5  0.27542771529997800        2.9549837386655515E-003   1.4502974620261805E-003   2.1499999999999998E-002  0.25392600616689659        0.0000000000000000        1.7091330814111239E-006
 abs           2           6  0.21964001012139267        2.3520689380615947E-003   1.1502816929549132E-003   4.0700000000000000E-002  0.17893863221565259        0.0000000000000000        1.3779057400523789E-006
 abs           2           7  0.18109704511116018        1.9496841012038117E-003   9.5026879098751257E-004   5.5000000000000000E-002  0.12609592291292765        0.0000000000000000        1.1221982325234278E-006
 abs           2           8  0.17375921187611004        1.6478292280922029E-003   8.0025875612397884E-004   8.4900000000000003E-002   8.8858295038829166E-002   0.0000000000000000        9.1683728088100593E-007
 abs           2           9  0.26211812016109087        1.4459743549805938E-003   7.0024872126044503E-004  0.19950000000000001        6.2617382186574339E-002   0.0000000000000000        7.3797451654728361E-007
 abs           2          10  0.32912631832054873        1.2442519728055282E-003   6.0023940317287781E-004  0.28499999999999998        4.4125723436243665E-002   0.0000000000000000        5.9488430508030586E-007
 abs           2          11  0.38229535402275183        9.4186713594774534E-004   4.5022650120547726E-004  0.35120000000000001        3.1094871755742812E-002   0.0000000000000000        4.8226700901833254E-007
 abs           2          12  0.47781258060059373        7.4080720845539738E-004   3.5022076699774368E-004  0.45590000000000003        2.1912185777602785E-002   0.0000000000000000        3.9482299089962388E-007
 abs           2          13  0.65874157564033753        7.3961479002650589E-004   3.5021431601404339E-004  0.64329999999999998        1.5441256337180466E-002   0.0000000000000000        3.1930315706983011E-007
 CDOM           3           1   5.1133043526117245E-003   100.00000000000000        2.0137527074704766     
 CDOM           3           2   5.1133043526117245E-003   100.00000000000000        1.4190675485932573     
 CDOM           3           3   5.1133043526117245E-003   100.00000000000000        1.0000000000000000     
 CDOM           3           4   5.1133043526117245E-003   100.00000000000000       0.70468808971871344     
 CDOM           3           5   5.1133043526117245E-003   100.00000000000000       0.49658530379140947     
 CDOM           3           6   5.1133043526117245E-003   100.00000000000000       0.34993774911115533     
 CDOM           3           7   5.1133043526117245E-003   100.00000000000000       0.24659696394160643     
 CDOM           3           8   5.1133043526117245E-003   100.00000000000000       0.17377394345044514     
 CDOM           3           9   5.1133043526117245E-003   100.00000000000000       0.12245642825298191     
 CDOM           3          10   5.1133043526117245E-003   100.00000000000000        8.6293586499370495E-002
 CDOM           3          11   5.1133043526117245E-003   100.00000000000000        6.0810062625217952E-002
 CDOM           3          12   5.1133043526117245E-003   100.00000000000000        4.2852126867040187E-002
 CDOM           3          13   5.1133043526117245E-003   100.00000000000000        3.0197383422318501E-002
 abs           3           1   1.0359973535308484        7.6717518600843198E-003   3.8003881775630563E-003   6.3000000000000000E-003   1.0296930484192435        0.0000000000000000        4.3051116050591857E-006
 abs           3           2  0.73071590232826211        5.8675311624323007E-003   2.9003653435887584E-003   5.1000000000000004E-003  0.72561242728719533        0.0000000000000000        3.4750410668288191E-006
 abs           3           3  0.51963319278363851        4.5597932167369326E-003   2.2503234813025467E-003   8.3000000000000001E-003  0.51133043526117250        0.0000000000000000        2.7575224659856219E-006
 abs           3           4  0.37223071867798169        3.6612001159542725E-003   1.8003310926273126E-003   1.1900000000000001E-002  0.36032846763923393        0.0000000000000000        2.2510387477433652E-006
 abs           3           5  0.27542099443195334        2.9583863175195934E-003   1.4503158699777810E-003   2.1499999999999998E-002  0.25391917953196297        0.0000000000000000        1.8148999903680881E-006
 abs           3           6  0.21963528474250807        2.3552911392414463E-003   1.1502991250632961E-003   4.0700000000000000E-002  0.17893382156732204        0.0000000000000000        1.4631751860331872E-006
 abs           3           7  0.18109372454998238        1.9527587206502352E-003   9.5028542467871780E-004   5.5000000000000000E-002  0.12609253290634528        0.0000000000000000        1.1916436370866438E-006
 abs           3           8  0.17375687971582490        1.6507890617459596E-003   8.0027476882404568E-004   8.4900000000000003E-002   8.8855906141566493E-002   0.0000000000000000        9.7357425839900534E-007
 abs           3           9  0.26211648240198981        1.4488194028416841E-003   7.0026411296937347E-004  0.19950000000000001        6.2615698759125774E-002   0.0000000000000000        7.8364286405815883E-007
 abs           3          10  0.32912516884271936        1.2469904338591425E-003   6.0025421824717786E-004  0.28499999999999998        4.4124537144970756E-002   0.0000000000000000        6.3169774858548178E-007
 abs           3          11  0.38229454790172701        9.4445801526793147E-004   4.5024051786259951E-004  0.35120000000000001        3.1094035790411853E-002   0.0000000000000000        5.1211131511161544E-007
 abs           3          12  0.47781201593875744        7.4333249589405973E-004   3.5023442880278684E-004  0.45590000000000003        2.1911596682790642E-002   0.0000000000000000        4.1925596676720167E-007
 abs           3          13  0.65874118027179396        7.4206628659845416E-004   3.5022757861049762E-004  0.64329999999999998        1.5440841209082633E-002   0.0000000000000000        3.3906271137884433E-007
 CDOM           4           1   5.1112065516948088E-003   100.00000000000000        2.0137527074704766     
 CDOM           4           2   5.1112065516948088E-003   100.00000000000000        1.4190675485932573     
 CDOM           4           3   5.1112065516948088E-003   100.00000000000000        1.0000000000000000     
 CDOM           4           4   5.1112065516948088E-003   100.00000000000000       0.70468808971871344     
 CDOM           4           5   5.1112065516948088E-003   100.00000000000000       0.49658530379140947     
 CDOM           4           6   5.1112065516948088E-003   100.00000000000000       0.34993774911115533     
 CDOM           4           7   5.1112065516948088E-003   100.00000000000000       0.24659696394160643     
 CDOM           4           8   5.1112065516948088E-003   100.00000000000000       0.17377394345044514     
 CDOM           4           9   5.1112065516948088E-003   100.00000000000000       0.12245642825298191     
 CDOM           4          10   5.1112065516948088E-003   100.00000000000000        8.6293586499370495E-002
 CDOM           4          11   5.1112065516948088E-003   100.00000000000000        6.0810062625217952E-002
 CDOM           4          12   5.1112065516948088E-003   100.00000000000000        4.2852126867040187E-002
 CDOM           4          13   5.1112065516948088E-003   100.00000000000000        3.0197383422318501E-002
 abs           4           1   1.0355752616129936        7.6776403561251254E-003   3.8004200343266371E-003   6.3000000000000000E-003   1.0292706031916261        0.0000000000000000        4.6584213675075034E-006
 abs           4           2  0.73041849539574721        5.8730732763530588E-003   2.9003953264250698E-003   5.1000000000000004E-003  0.72531473516673484        0.0000000000000000        3.7602290123344880E-006
 abs           4           3  0.51942363899493194        4.5647002967709373E-003   2.2503500286055306E-003   8.3000000000000001E-003  0.51112065516948091        0.0000000000000000        2.9838254510832377E-006
 abs           4           4  0.37208307388303724        3.6662226566949595E-003   1.8003582645727196E-003   1.1900000000000001E-002  0.36018063810715878        0.0000000000000000        2.4357758784352962E-006
 abs           4           5  0.27531696966570296        2.9631779368469151E-003   1.4503417926383416E-003   2.1499999999999998E-002  0.25381500582140093        0.0000000000000000        1.9638443019884576E-006
 abs           4           6  0.21956199484854810        2.3598287450140669E-003   1.1503236735105262E-003   4.0700000000000000E-002  0.17886041159422714        0.0000000000000000        1.5832543209829424E-006
 abs           4           7  0.18104209121149437        1.9570884971508271E-003   9.5030884876958594E-004   5.5000000000000000E-002  0.12604080177263874        0.0000000000000000        1.2894388556466850E-006
 abs           4           8  0.17372050530084326        1.6549571932571964E-003   8.0029731841552143E-004   8.4900000000000003E-002   8.8819451827775842E-002   0.0000000000000000        1.0534730674232655E-006
 abs           4           9  0.26209085779285635        1.4528258893635655E-003   7.0028578806145684E-004  0.19950000000000001        6.2590009838378646E-002   0.0000000000000000        8.4795447768028742E-007
 abs           4          10  0.32910711800808834        1.2508468214623366E-003   6.0027508130411117E-004  0.28499999999999998        4.4106434468482517E-002   0.0000000000000000        6.8353960588590497E-007
 abs           4          11  0.38228183318891090        9.4810657359909703E-004   4.5026025656317111E-004  0.35120000000000001        3.1081279049898564E-002   0.0000000000000000        5.5413901234402982E-007
 abs           4          12  0.47780306082294466        7.4688868565987948E-004   3.5025366778941992E-004  0.45590000000000003        2.1902607159687296E-002   0.0000000000000000        4.5366325735857383E-007
 abs           4          13  0.65873487328796121        7.4551856172825953E-004   3.5024625541894990E-004  0.64329999999999998        1.5434506399219453E-002   0.0000000000000000        3.6688874168931643E-007
 CDOM           5           1   5.1084507649988729E-003   100.00000000000000        2.0137527074704766     
 CDOM           5           2   5.1084507649988729E-003   100.00000000000000        1.4190675485932573     
 CDOM           5           3   5.1084507649988729E-003   100.00000000000000        1.0000000000000000     
 CDOM           5           4   5.1084507649988729E-003   100.00000000000000       0.70468808971871344     
 CDOM           5           5   5.1084507649988729E-003   100.00000000000000       0.49658530379140947     
 CDOM           5           6   5.1084507649988729E-003   100.00000000000000       0.34993774911115533     
 CDOM           5           7   5.1084507649988729E-003   100.00000000000000       0.24659696394160643     
 CDOM           5           8   5.1084507649988729E-003   100.00000000000000       0.17377394345044514     
 CDOM           5           9   5.1084507649988729E-003   100.00000000000000       0.12245642825298191     
 CDOM           5          10   5.1084507649988729E-003   100.00000000000000        8.6293586499370495E-002
 CDOM           5          11   5.1084507649988729E-003   100.00000000000000        6.0810062625217952E-002
 CDOM           5          12   5.1084507649988729E-003   100.00000000000000        4.2852126867040187E-002
 CDOM           5          13   5.1084507649988729E-003   100.00000000000000        3.0197383422318501E-002
 abs           5           1   1.0350207019405560        7.6841006824193052E-003   3.8004549846918883E-003   6.3000000000000000E-003   1.0287156558996109        0.0000000000000000        5.0460409451583293E-006
 abs           5           2  0.73002774353111199        5.8791535834534633E-003   2.9004282208864832E-003   5.1000000000000004E-003  0.72492367041963013        0.0000000000000000        4.0731114818761680E-006
 abs           5           3  0.51914830860454497        4.5700839020160876E-003   2.2503791539099068E-003   8.3000000000000001E-003  0.51084507649988731        0.0000000000000000        3.2321046576831132E-006
 abs           5           4  0.37188907955369738        3.6717329350047017E-003   1.8003880751783754E-003   1.1900000000000001E-002  0.35998644110091560        0.0000000000000000        2.6384527817821332E-006
 abs           5           5  0.27518028475659767        2.9684348690274739E-003   1.4503702326414385E-003   2.1499999999999998E-002  0.25367815750404232        0.0000000000000000        2.1272525553118448E-006
 abs           5           6  0.21946569120919465        2.3648069964525235E-003   1.1503506058508082E-003   4.0700000000000000E-002  0.17876397621488652        0.0000000000000000        1.7149943081583865E-006
 abs           5           7  0.18097424164033124        1.9618387370730185E-003   9.5033454756756502E-004   5.5000000000000000E-002  0.12597284490938990        0.0000000000000000        1.3967309413559169E-006
 abs           5           8  0.17367270456645784        1.6595300908889595E-003   8.0032205779170926E-004   8.4900000000000003E-002   8.8771563435629738E-002   0.0000000000000000        1.1411308281207727E-006
 abs           5           9  0.26205718197017219        1.4572214447048999E-003   7.0030956801585352E-004  0.19950000000000001        6.2556263458797501E-002   0.0000000000000000        9.1851137465790504E-007
 abs           5          10  0.32908339421253241        1.2550777018197020E-003   6.0029797036684456E-004  0.28499999999999998        4.4082653796720564E-002   0.0000000000000000        7.4041581188761113E-007
 abs           5          11  0.38226512134175028        9.5210944244019714E-004   4.5028191208360143E-004  0.35120000000000001        3.1064521093742404E-002   0.0000000000000000        6.0024800785543526E-007
 abs           5          12  0.47779128943940669        7.5079021604930604E-004   3.5027477506882675E-004  0.45590000000000003        2.1890798027576021E-002   0.0000000000000000        4.9141183060692229E-007
 abs           5          13  0.65872658206142098        7.4930608635955355E-004   3.5026674592720516E-004  0.64329999999999998        1.5426184644470724E-002   0.0000000000000000        3.9741695025593378E-007
 CDOM           6           1   5.0959735851332675E-003   100.00000000000000        2.0137527074704766     
 CDOM           6           2   5.0959735851332675E-003   100.00000000000000        1.4190675485932573     
 CDOM           6           3   5.0959735851332675E-003   100.00000000000000        1.0000000000000000     
 CDOM           6           4   5.0959735851332675E-003   100.00000000000000       0.70468808971871344     
 CDOM           6           5   5.0959735851332675E-003   100.00000000000000       0.49658530379140947     
 CDOM           6           6   5.0959735851332675E-003   100.00000000000000       0.34993774911115533     
 CDOM           6           7   5.0959735851332675E-003   100.00000000000000       0.24659696394160643     
 CDOM           6           8   5.0959735851332675E-003   100.00000000000000       0.17377394345044514     
 CDOM           6           9   5.0959735851332675E-003   100.00000000000000       0.12245642825298191     
 CDOM           6          10   5.0959735851332675E-003   100.00000000000000        8.6293586499370495E-002
 CDOM           6          11   5.0959735851332675E-003   100.00000000000000        6.0810062625217952E-002
 CDOM           6          12   5.0959735851332675E-003   100.00000000000000        4.2852126867040187E-002
 CDOM           6          13   5.0959735851332675E-003   100.00000000000000        3.0197383422318501E-002
 abs           6           1   1.0325087357914127        7.6945894232960067E-003   3.8005117287800315E-003   6.3000000000000000E-003   1.0262030604260148        0.0000000000000000        5.6753653977603803E-006
 abs           6           2  0.72825765541070475        5.8890253395727111E-003   2.9004816270870883E-003   5.1000000000000004E-003  0.72315307431510589        0.0000000000000000        4.5810955988457967E-006
 abs           6           3  0.51790099371469267        4.5788245194133383E-003   2.2504264406500258E-003   8.3000000000000001E-003  0.50959735851332677        0.0000000000000000        3.6352013658857340E-006
 abs           6           4  0.37101015660777770        3.6806792139877698E-003   1.8004364745476738E-003   1.1900000000000001E-002  0.35910718909645861        0.0000000000000000        2.9675113190903950E-006
 abs           6           5  0.27456095164464123        2.9769698248389071E-003   1.4504164067523785E-003   2.1499999999999998E-002  0.25305855908864017        0.0000000000000000        2.3925560010166312E-006
 abs           6           6  0.21902928147350145        2.3728894967751579E-003   1.1503943321775536E-003   4.0700000000000000E-002  0.17832735259114402        0.0000000000000000        1.9288823574087566E-006
 abs           6           7  0.18066673236835326        1.9695510465411810E-003   9.5037627116178775E-004   5.5000000000000000E-002  0.12566516144204873        0.0000000000000000        1.5709263045434779E-006
 abs           6           8  0.17345602600943658        1.6669544741369771E-003   8.0036222370508104E-004   8.4900000000000003E-002   8.8554742560791058E-002   0.0000000000000000        1.2834486455065958E-006
 abs           6           9  0.26190450543557431        1.4643579017327730E-003   7.0034817624837434E-004  0.19950000000000001        6.2403472370696295E-002   0.0000000000000000        1.0330648779583437E-006
 abs           6          10  0.32897581649458441        1.2619467987860118E-003   6.0033513218143227E-004  0.28499999999999998        4.3974983736720478E-002   0.0000000000000000        8.3275786391974218E-007
 abs           6          11  0.38218932239366610        9.5860834855203522E-004   4.5031707116566650E-004  0.35120000000000001        3.0988647284841044E-002   0.0000000000000000        6.7510882509306482E-007
 abs           6          12  0.47773788335710488        7.5712459289249006E-004   3.5030904404754836E-004  0.45590000000000003        2.1837330658121639E-002   0.0000000000000000        5.5269898318058598E-007
 abs           6          13  0.65868895380742010        7.5545536777550171E-004   3.5030001353966549E-004  0.64329999999999998        1.5388506826027631E-002   0.0000000000000000        4.4698139243799075E-007
 CDOM           7           1   5.0834248921433171E-003   100.00000000000000        2.0137527074704766     
 CDOM           7           2   5.0834248921433171E-003   100.00000000000000        1.4190675485932573     
 CDOM           7           3   5.0834248921433171E-003   100.00000000000000        1.0000000000000000     
 CDOM           7           4   5.0834248921433171E-003   100.00000000000000       0.70468808971871344     
 CDOM           7           5   5.0834248921433171E-003   100.00000000000000       0.49658530379140947     
 CDOM           7           6   5.0834248921433171E-003   100.00000000000000       0.34993774911115533     
 CDOM           7           7   5.0834248921433171E-003   100.00000000000000       0.24659696394160643     
 CDOM           7           8   5.0834248921433171E-003   100.00000000000000       0.17377394345044514     
 CDOM           7           9   5.0834248921433171E-003   100.00000000000000       0.12245642825298191     
 CDOM           7          10   5.0834248921433171E-003   100.00000000000000        8.6293586499370495E-002
 CDOM           7          11   5.0834248921433171E-003   100.00000000000000        6.0810062625217952E-002
 CDOM           7          12   5.0834248921433171E-003   100.00000000000000        4.2852126867040187E-002
 CDOM           7          13   5.0834248921433171E-003   100.00000000000000        3.0197383422318501E-002
 abs           7           1   1.0299823687491323        7.7050795248399771E-003   3.8005684802293843E-003   6.3000000000000000E-003   1.0236760639776419        0.0000000000000000        6.3047714903986034E-006
 abs           7           2  0.72647741916079078        5.8988983763199774E-003   2.9005350402158910E-003   5.1000000000000004E-003  0.72137233001517598        0.0000000000000000        5.0891456147988721E-006
 abs           7           3  0.51664652756469809        4.5875662706999802E-003   2.2504737335244866E-003   8.3000000000000001E-003  0.50834248921433167        0.0000000000000000        4.0383503663991057E-006
 abs           7           4  0.37012619425984711        3.6896266535399800E-003   1.8004848801956512E-003   1.1900000000000001E-002  0.35822289764730308        0.0000000000000000        3.2966125439992700E-006
 abs           7           5  0.27393806733044379        2.9855058878599807E-003   1.4504625868533225E-003   2.1499999999999998E-002  0.25243540943658016        0.0000000000000000        2.6578938635994116E-006
 abs           7           6  0.21859036925137856        2.3809730456119818E-003   1.1504380641767608E-003   4.0700000000000000E-002  0.17788822645322497        0.0000000000000000        2.1427981535995253E-006
 abs           7           7  0.18035745962703847        1.9772643564999830E-003   9.5041800016866485E-004   5.5000000000000000E-002  0.12535571448277300        0.0000000000000000        1.7451442654796135E-006
 abs           7           8  0.17323810475911508        1.6743798205239835E-003   8.0040239482903478E-004   8.4900000000000003E-002   8.8336678974189786E-002   0.0000000000000000        1.4257849252796844E-006
 abs           7           9  0.26175095319165892        1.4714952845479841E-003   7.0038678948940462E-004  0.19950000000000001        6.2249805558417033E-002   0.0000000000000000        1.1476332418797458E-006
 abs           7          10  0.32886762167621736        1.2688167868559848E-003   6.0037229881689078E-004  0.28499999999999998        4.3866696564322245E-002   0.0000000000000000        9.2511189515979520E-007
 abs           7          11  0.38211308858353649        9.6510809774398554E-004   4.5035223480879497E-004  0.35120000000000001        3.0912338604182691E-002   0.0000000000000000        7.4997935375983385E-007
 abs           7          12  0.47768417083380588        7.6345979147198590E-004   3.5034331747186344E-004  0.45590000000000003        2.1783556839719550E-002   0.0000000000000000        6.1399408631986400E-007
 abs           7          13  0.65865110960892537        7.6160544691598637E-004   3.5033328546781549E-004  0.64329999999999998        1.5350613056660981E-002   0.0000000000000000        4.9655226443989003E-007
 CDOM           8           1   4.8805134948736286E-003   100.00000000000000        2.0137527074704766     
 CDOM           8           2   4.8805134948736286E-003   100.00000000000000        1.4190675485932573     
 CDOM           8           3   4.8805134948736286E-003   100.00000000000000        1.0000000000000000     
 CDOM           8           4   4.8805134948736286E-003   100.00000000000000       0.70468808971871344     
 CDOM           8           5   4.8805134948736286E-003   100.00000000000000       0.49658530379140947     
 CDOM           8           6   4.8805134948736286E-003   100.00000000000000       0.34993774911115533     
 CDOM           8           7   4.8805134948736286E-003   100.00000000000000       0.24659696394160643     
 CDOM           8           8   4.8805134948736286E-003   100.00000000000000       0.17377394345044514     
 CDOM           8           9   4.8805134948736286E-003   100.00000000000000       0.12245642825298191     
 CDOM           8          10   4.8805134948736286E-003   100.00000000000000        8.6293586499370495E-002
 CDOM           8          11   4.8805134948736286E-003   100.00000000000000        6.0810062625217952E-002
 CDOM           8          12   4.8805134948736286E-003   100.00000000000000        4.2852126867040187E-002
 CDOM           8          13   4.8805134948736286E-003   100.00000000000000        3.0197383422318501E-002
 abs           8           1  0.98912164459175034        7.7153029492269690E-003   3.8006237889553181E-003   6.3000000000000000E-003  0.98281472641479672        0.0000000000000000        6.9181769536181602E-006
 abs           8           2  0.69768341638475306        5.9085204228018530E-003   2.9005870954873576E-003   5.1000000000000004E-003  0.69257783210466306        0.0000000000000000        5.5842800900120436E-006
 abs           8           3  0.49635578073796055        4.5960857910224738E-003   2.2505198241294312E-003   8.3000000000000001E-003  0.48805134948736284        0.0000000000000000        4.4312505977423512E-006
 abs           8           4  0.35582759050231666        3.6983466331641794E-003   1.8005320552854183E-003   1.1900000000000001E-002  0.34392397315488993        0.0000000000000000        3.6173474267284500E-006
 abs           8           5  0.26386204413735226        2.9938249488807691E-003   1.4505075929734448E-003   2.1499999999999998E-002  0.24235912765098944        0.0000000000000000        2.9164863627998128E-006
 abs           8           6  0.21148994196609694        2.3888510961690176E-003   1.1504806844302743E-003   4.0700000000000000E-002  0.17078759069026955        0.0000000000000000        2.3512758273734923E-006
 abs           8           7  0.17535389596448159        1.9847815803139481E-003   9.5045866834949841E-004   5.5000000000000000E-002  0.12035198103118758        0.0000000000000000        1.9149332940243733E-006
 abs           8           8  0.16971217210949249        1.6816164013155608E-003   8.0044154473111724E-004   8.4900000000000003E-002   8.4810607606730426E-002   0.0000000000000000        1.5645027620600545E-006
 abs           8           9  0.25926628435134313        1.4784512223171733E-003   7.0042442111273588E-004  0.19950000000000001        5.9765025062270244E-002   0.0000000000000000        1.2592890729298416E-006
 abs           8          10  0.32711671646124385        1.2755121275329563E-003   6.0040852060995323E-004  0.28499999999999998        4.2115701343122244E-002   0.0000000000000000        1.0151181216256713E-006
 abs           8          11  0.38087925607318829        9.7144261167788682E-004   4.5038650452917738E-004  0.35120000000000001        2.9678433126648668E-002   0.0000000000000000        8.2294653958072223E-007
 abs           8          12  0.47681471207682091        7.6963393796452260E-004   3.5037671960438808E-004  0.45590000000000003        2.0914038345862640E-002   0.0000000000000000        6.7373095822817370E-007
 abs           8          13  0.65803841859320600        7.6759918003698792E-004   3.5036571156400010E-004  0.64329999999999998        1.4737873730249864E-002   0.0000000000000000        5.4486295615097266E-007
 CDOM           9           1   4.6775039005658766E-003   100.00000000000000        2.0137527074704766     
 CDOM           9           2   4.6775039005658766E-003   100.00000000000000        1.4190675485932573     
 CDOM           9           3   4.6775039005658766E-003   100.00000000000000        1.0000000000000000     
 CDOM           9           4   4.6775039005658766E-003   100.00000000000000       0.70468808971871344     
 CDOM           9           5   4.6775039005658766E-003   100.00000000000000       0.49658530379140947     
 CDOM           9           6   4.6775039005658766E-003   100.00000000000000       0.34993774911115533     
 CDOM           9           7   4.6775039005658766E-003   100.00000000000000       0.24659696394160643     
 CDOM           9           8   4.6775039005658766E-003   100.00000000000000       0.17377394345044514     
 CDOM           9           9   4.6775039005658766E-003   100.00000000000000       0.12245642825298191     
 CDOM           9          10   4.6775039005658766E-003   100.00000000000000        8.6293586499370495E-002
 CDOM           9          11   4.6775039005658766E-003   100.00000000000000        6.0810062625217952E-002
 CDOM           9          12   4.6775039005658766E-003   100.00000000000000        4.2852126867040187E-002
 CDOM           9          13   4.6775039005658766E-003   100.00000000000000        3.0197383422318501E-002
 abs           9           1  0.94824114585068742        7.7255242310427944E-003   3.8006790860899415E-003   6.3000000000000000E-003  0.94193361439682488        0.0000000000000000        7.5314538625676598E-006
 abs           9           2  0.66887547868193931        5.9181404527461588E-003   2.9006391398493565E-003   5.1000000000000004E-003  0.66376939937114177        0.0000000000000000        6.0793107975627836E-006
 abs           9           3  0.47605521412507473        4.6046035258689947E-003   2.2505659050749511E-003   8.3000000000000001E-003  0.46775039005658764        0.0000000000000000        4.8240684871348415E-006
 abs           9           4  0.34152206684925140        3.7070647853012068E-003   1.8005792204884795E-003   1.1900000000000001E-002  0.32961812883415986        0.0000000000000000        3.9380150915386461E-006
 abs           9           5  0.25378114456946843        3.0021422664367834E-003   1.4505525896614229E-003   2.1499999999999998E-002  0.23227796954480084        0.0000000000000000        3.1750246675530332E-006
 abs           9           6  0.20438607835207673        2.3967274956859181E-003   1.1505232957516609E-003   4.0700000000000000E-002  0.16368351864226721        0.0000000000000000        2.5597098095001197E-006
 abs           9           7  0.17034791075719577        1.9922972287079368E-003   9.5049932800730995E-004   5.5000000000000000E-002  0.11534582607045668        0.0000000000000000        2.0846867390832710E-006
 abs           9           8  0.16618453302214420        1.6888514655028408E-003   8.0048068642837042E-004   8.4900000000000003E-002   8.1282829830617118E-002   0.0000000000000000        1.7031915270904643E-006
 abs           9           9  0.25678041300177262        1.4854057022977445E-003   7.0046204484943081E-004  0.19950000000000001        5.7279042080268829E-002   0.0000000000000000        1.3709215037418910E-006
 abs           9          10  0.32536496384994745        1.2822060650358692E-003   6.0044473481184397E-004  0.28499999999999998        4.0363858744462432E-002   0.0000000000000000        1.1051054850630325E-006
 abs           9          11  0.37964482641074454        9.7777579805788817E-004   4.5042076706749317E-004  0.35120000000000001        2.8443930512311220E-002   0.0000000000000000        8.9589843332504191E-007
 abs           9          12  0.47594483251212327        7.7580679051211896E-004   3.5041011473667058E-004  0.45590000000000003        2.0044099056812426E-002   0.0000000000000000        7.3345531079907271E-007
 abs           9          13  0.65742543103800100        7.7359165702312841E-004   3.5039813086449510E-004  0.64329999999999998        1.4124837874477813E-002   0.0000000000000000        5.9316352316300855E-007
 CDOM          10           1   4.3931845698581126E-003   100.00000000000000        2.0137527074704766     
 CDOM          10           2   4.3931845698581126E-003   100.00000000000000        1.4190675485932573     
 CDOM          10           3   4.3931845698581126E-003   100.00000000000000        1.0000000000000000     
 CDOM          10           4   4.3931845698581126E-003   100.00000000000000       0.70468808971871344     
 CDOM          10           5   4.3931845698581126E-003   100.00000000000000       0.49658530379140947     
 CDOM          10           6   4.3931845698581126E-003   100.00000000000000       0.34993774911115533     
 CDOM          10           7   4.3931845698581126E-003   100.00000000000000       0.24659696394160643     
 CDOM          10           8   4.3931845698581126E-003   100.00000000000000       0.17377394345044514     
 CDOM          10           9   4.3931845698581126E-003   100.00000000000000       0.12245642825298191     
 CDOM          10          10   4.3931845698581126E-003   100.00000000000000        8.6293586499370495E-002
 CDOM          10          11   4.3931845698581126E-003   100.00000000000000        6.0810062625217952E-002
 CDOM          10          12   4.3931845698581126E-003   100.00000000000000        4.2852126867040187E-002
 CDOM          10          13   4.3931845698581126E-003   100.00000000000000        3.0197383422318501E-002
 abs          10           1  0.89098653557602725        7.7300563182965357E-003   3.8007036046819841E-003   6.3000000000000000E-003  0.88467873219692950        0.0000000000000000        7.8033790977921473E-006
 abs          10           2  0.62852886461263124        5.9224059466320336E-003   2.9006622161712793E-003   5.1000000000000004E-003  0.62342256580662747        0.0000000000000000        6.2988060037733983E-006
 abs          10           3  0.44762345522863201        4.6083802652471129E-003   2.2505863372349866E-003   8.3000000000000001E-003  0.43931845698581123        0.0000000000000000        4.9982428208080412E-006
 abs          10           4  0.32148656442972517        3.7109303891352803E-003   1.8006001334052218E-003   1.1900000000000001E-002  0.30958248423150408        0.0000000000000000        4.0801982210677894E-006
 abs          10           5  0.23966237908328805        3.0058301413589455E-003   1.4505725410647518E-003   2.1499999999999998E-002  0.21815908942347231        0.0000000000000000        3.2896598157359052E-006
 abs          10           6  0.19443676410944438        2.4002198688049775E-003   1.1505421894902350E-003   4.0700000000000000E-002  0.15373411198060069        0.0000000000000000        2.6521288436940627E-006
 abs          10           7  0.16333675765114555        1.9956296458062761E-003   9.5051735638381190E-004   5.5000000000000000E-002  0.10833459769621227        0.0000000000000000        2.1599549332777611E-006
 abs          10           8  0.16124386538671978        1.6920594723628421E-003   8.0049804174548301E-004   8.4900000000000003E-002   7.6342100700989179E-002   0.0000000000000000        1.7646857306118188E-006
 abs          10           9  0.25329878952709944        1.4884892989194076E-003   7.0047872710715404E-004  0.19950000000000001        5.3797369108093712E-002   0.0000000000000000        1.4204190057092241E-006
 abs          10          10  0.32291151027430087        1.2851741378647899E-003   6.0046079208584844E-004  0.28499999999999998        3.7910365268675077E-002   0.0000000000000000        1.1450056257871484E-006
 abs          10          11  0.37791591112681661        9.8058391486608885E-004   4.5043595897942555E-004  0.35120000000000001        2.6714982881721302E-002   0.0000000000000000        9.2824509529292195E-007
 abs          10          12  0.47472649019070701        7.7854381575555493E-004   3.5042492204323756E-004  0.45590000000000003        1.8825730253788319E-002   0.0000000000000000        7.5993691867387559E-007
 abs          10          13  0.65656688246995887        7.7624870425620424E-004   3.5041250549002606E-004  0.64329999999999998        1.3266267890101879E-002   0.0000000000000000        6.1457985704833572E-007
 CDOM          11           1   4.0817358335177873E-003   100.00000000000000        2.0137527074704766     
 CDOM          11           2   4.0817358335177873E-003   100.00000000000000        1.4190675485932573     
 CDOM          11           3   4.0817358335177873E-003   100.00000000000000        1.0000000000000000     
 CDOM          11           4   4.0817358335177873E-003   100.00000000000000       0.70468808971871344     
 CDOM          11           5   4.0817358335177873E-003   100.00000000000000       0.49658530379140947     
 CDOM          11           6   4.0817358335177873E-003   100.00000000000000       0.34993774911115533     
 CDOM          11           7   4.0817358335177873E-003   100.00000000000000       0.24659696394160643     
 CDOM          11           8   4.0817358335177873E-003   100.00000000000000       0.17377394345044514     
 CDOM          11           9   4.0817358335177873E-003   100.00000000000000       0.12245642825298191     
 CDOM          11          10   4.0817358335177873E-003   100.00000000000000        8.6293586499370495E-002
 CDOM          11          11   4.0817358335177873E-003   100.00000000000000        6.0810062625217952E-002
 CDOM          11          12   4.0817358335177873E-003   100.00000000000000        4.2852126867040187E-002
 CDOM          11          13   4.0817358335177873E-003   100.00000000000000        3.0197383422318501E-002
 abs          11           1  0.82826862000281909        7.7326901708062298E-003   3.8007178538240617E-003   6.3000000000000000E-003  0.82196065859257073        0.0000000000000000        7.9614102483737995E-006
 abs          11           2  0.58433231269463015        5.9248848666411573E-003   2.9006756271285285E-003   5.1000000000000004E-003  0.57922588632753425        0.0000000000000000        6.4263670959095700E-006
 abs          11           3  0.41647868281716655        4.6105751423385251E-003   2.2505982115200514E-003   8.3000000000000001E-003  0.40817358335177872        0.0000000000000000        5.0994653878472709E-006
 abs          11           4  0.29953922555469509        3.7131769103935491E-003   1.8006122870852291E-003   1.1900000000000001E-002  0.28763506272580702        0.0000000000000000        4.1628288880385882E-006
 abs          11           5  0.22419635916916220        3.0079733742835006E-003   1.4505841359548736E-003   2.1499999999999998E-002  0.20269300288837122        0.0000000000000000        3.3562807909811118E-006
 abs          11           6  0.18353805084353322        2.4022494845624479E-003   1.1505531697114828E-003   4.0700000000000000E-002  0.14283534500475600        0.0000000000000000        2.7058387772250824E-006
 abs          11           7  0.15565657011325748        1.9975663020634043E-003   9.5052783369416302E-004   5.5000000000000000E-002  0.10065436641571486        0.0000000000000000        2.2036975426054278E-006
 abs          11           8  0.15583173361483163        1.6939238267863707E-003   8.0050812790291429E-004   8.4900000000000003E-002   7.0929933191337557E-002   0.0000000000000000        1.8004234940766894E-006
 abs          11           9  0.24948492830928629        1.4902813515093368E-003   7.0048842211166548E-004  0.19950000000000001        4.9983479124479618E-002   0.0000000000000000        1.4491848066484333E-006
 abs          11          10  0.32022393061558141        1.2868990530378055E-003   6.0047012387693451E-004  0.28499999999999998        3.5222762421724729E-002   0.0000000000000000        1.1681938567058288E-006
 abs          11          11  0.37602200820915332        9.8221587053876199E-004   4.5044478785961466E-004  0.35120000000000001        2.4821061165581283E-002   0.0000000000000000        9.4704357202877877E-007
 abs          11          12  0.47339188150444528        7.8013445609474285E-004   3.5043352740747255E-004  0.45590000000000003        1.7491106177564823E-002   0.0000000000000000        7.7532688039718699E-007
 abs          11          13  0.65562640122543658        7.7779286484522107E-004   3.5042085939881263E-004  0.64329999999999998        1.2325774199335341E-002   0.0000000000000000        6.2702610126081236E-007
 CDOM          12           1   3.7702326860734429E-003   100.00000000000000        2.0137527074704766     
 CDOM          12           2   3.7702326860734429E-003   100.00000000000000        1.4190675485932573     
 CDOM          12           3   3.7702326860734429E-003   100.00000000000000        1.0000000000000000     
 CDOM          12           4   3.7702326860734429E-003   100.00000000000000       0.70468808971871344     
 CDOM          12           5   3.7702326860734429E-003   100.00000000000000       0.49658530379140947     
 CDOM          12           6   3.7702326860734429E-003   100.00000000000000       0.34993774911115533     
 CDOM          12           7   3.7702326860734429E-003   100.00000000000000       0.24659696394160643     
 CDOM          12           8   3.7702326860734429E-003   100.00000000000000       0.17377394345044514     
 CDOM          12           9   3.7702326860734429E-003   100.00000000000000       0.12245642825298191     
 CDOM          12          10   3.7702326860734429E-003   100.00000000000000        8.6293586499370495E-002
 CDOM          12          11   3.7702326860734429E-003   100.00000000000000        6.0810062625217952E-002
 CDOM          12          12   3.7702326860734429E-003   100.00000000000000        4.2852126867040187E-002
 CDOM          12          13   3.7702326860734429E-003   100.00000000000000        3.0197383422318501E-002
 abs          12           1  0.76553974729589680        7.7353226414736027E-003   3.8007320954903724E-003   6.3000000000000000E-003  0.75923162793740839        0.0000000000000000        8.1193584884161438E-006
 abs          12           2  0.54012803940650489        5.9273624860928017E-003   2.9006890310497619E-003   5.1000000000000004E-003  0.53502148554524132        0.0000000000000000        6.5538612635254482E-006
 abs          12           3  0.38532846924219305        4.6127688678946682E-003   2.2506100795753100E-003   8.3000000000000001E-003  0.37702326860734431        0.0000000000000000        5.2006348487894254E-006
 abs          12           4  0.27758805235061795        3.7154222530216018E-003   1.8006244343888467E-003   1.1900000000000001E-002  0.26568380693441485        0.0000000000000000        4.2454162030934087E-006
 abs          12           5  0.20872763724462198        3.0101154827677349E-003   1.4505957247617734E-003   2.1499999999999998E-002  0.18722421437780826        0.0000000000000000        3.4228668137440605E-006
 abs          12           6  0.17263743349951657        2.4042780354884817E-003   1.1505641441719927E-003   4.0700000000000000E-002  0.13193467397898459        0.0000000000000000        2.7595205320107153E-006
 abs          12           7  0.14797504079111440        1.9995019422600017E-003   9.5053830550762659E-004   5.5000000000000000E-002   9.2972793373911886E-002   0.0000000000000000        2.2474172025125733E-006
 abs          12           8  0.15041865630098247        1.6957872030822952E-003   8.0051820876867526E-004   8.4900000000000003E-002   6.5516820158474640E-002   0.0000000000000000        1.8361425078378992E-006
 abs          12           9  0.24567040077743568        1.4920724639045882E-003   7.0049811202972385E-004  0.19950000000000001        4.6168922841919986E-002   0.0000000000000000        1.4779355157018926E-006
 abs          12          10  0.31753588141176525        1.2886230632395748E-003   6.0047945077212601E-004  0.28499999999999998        3.2534690041843263E-002   0.0000000000000000        1.1913699219930879E-006
 abs          12          11  0.37412777440736322        9.8384697001109469E-004   4.5045361210776001E-004  0.35120000000000001        2.2926808575176975E-002   0.0000000000000000        9.6583218620375039E-007
 abs          12          12  0.47205703964695594        7.8172426190954811E-004   3.5044212825693065E-004  0.45590000000000003        1.6156248938188088E-002   0.0000000000000000        7.9070876782614728E-007
 abs          12          13  0.65468575566708742        7.7933621529530810E-004   3.5042920892474759E-004  0.64329999999999998        1.1385116201271755E-002   0.0000000000000000        6.3946581559094456E-007
 CDOM          13           1   3.3346081664487083E-003   100.00000000000000        2.0137527074704766     
 CDOM          13           2   3.3346081664487083E-003   100.00000000000000        1.4190675485932573     
 CDOM          13           3   3.3346081664487083E-003   100.00000000000000        1.0000000000000000     
 CDOM          13           4   3.3346081664487083E-003   100.00000000000000       0.70468808971871344     
 CDOM          13           5   3.3346081664487083E-003   100.00000000000000       0.49658530379140947     
 CDOM          13           6   3.3346081664487083E-003   100.00000000000000       0.34993774911115533     
 CDOM          13           7   3.3346081664487083E-003   100.00000000000000       0.24659696394160643     
 CDOM          13           8   3.3346081664487083E-003   100.00000000000000       0.17377394345044514     
 CDOM          13           9   3.3346081664487083E-003   100.00000000000000       0.12245642825298191     
 CDOM          13          10   3.3346081664487083E-003   100.00000000000000        8.6293586499370495E-002
 CDOM          13          11   3.3346081664487083E-003   100.00000000000000        6.0810062625217952E-002
 CDOM          13          12   3.3346081664487083E-003   100.00000000000000        4.2852126867040187E-002
 CDOM          13          13   3.3346081664487083E-003   100.00000000000000        3.0197383422318501E-002
 abs          13           1  0.67781578308186319        7.7360121323064805E-003   3.8007358256357780E-003   6.3000000000000000E-003  0.67150762235392480        0.0000000000000000        8.1607279383888067E-006
 abs          13           2  0.47831001088239339        5.9280114186413928E-003   2.9006925417748497E-003   5.1000000000000004E-003  0.47320342362814249        0.0000000000000000        6.5872542509216831E-006
 abs          13           3  0.34176604377779862        4.6133434435887332E-003   2.2506131880298151E-003   8.3000000000000001E-003  0.33346081664487082        0.0000000000000000        5.2271329278568831E-006
 abs          13           4  0.24689013292480422        3.7160103481437626E-003   1.8006276159834578E-003   1.1900000000000001E-002  0.23498586587751619        0.0000000000000000        4.2670472880464356E-006
 abs          13           5  0.18709518124300065        3.0106765390337043E-003   1.4505987600761723E-003   2.1499999999999998E-002  0.16559174093612467        0.0000000000000000        3.4403068759874384E-006
 abs          13           6  0.15739330117421099        2.4048093490126403E-003   1.1505670185781585E-003   4.0700000000000000E-002  0.11669052759347377        0.0000000000000000        2.7735807372301828E-006
 abs          13           7  0.13723268384627196        2.0000089208135883E-003   9.5054104826160148E-004   5.5000000000000000E-002   8.2230424978113850E-002   0.0000000000000000        2.2588681581095815E-006
 abs          13           8  0.14284864659253710        1.6962752544365477E-003   8.0052084912650174E-004   8.4900000000000003E-002   5.7946801094585033E-002   0.0000000000000000        1.8454979520800833E-006
 abs          13           9  0.24033590603449054        1.4925415880595071E-003   7.0050064999140191E-004  0.19950000000000001        4.0834420568653378E-002   0.0000000000000000        1.4854658371511652E-006
 abs          13          10  0.31377672726544009        1.2890746121379693E-003   6.0048189365166638E-004  0.28499999999999998        2.8775529825294886E-002   0.0000000000000000        1.1974401452080309E-006
 abs          13          11  0.37147874389648899        9.8427418393891709E-004   4.5045592333510954E-004  0.35120000000000001        2.0277773143230916E-002   0.0000000000000000        9.7075325803056385E-007
 abs          13          12  0.47019029995761025        7.8214066029489381E-004   3.5044438097219535E-004  0.45590000000000003        1.4289505220052831E-002   0.0000000000000000        7.9473755739864839E-007
 abs          13          13  0.65337028686054244        7.7974044619536778E-004   3.5043139581391691E-004  0.64329999999999998        1.0069644136544612E-002   0.0000000000000000        6.4272399776199425E-007
 CDOM          14           1   2.8576043844698537E-003   100.00000000000000        2.0137527074704766     
 CDOM          14           2   2.8576043844698537E-003   100.00000000000000        1.4190675485932573     
 CDOM          14           3   2.8576043844698537E-003   100.00000000000000        1.0000000000000000     
 CDOM          14           4   2.8576043844698537E-003   100.00000000000000       0.70468808971871344     
 CDOM          14           5   2.8576043844698537E-003   100.00000000000000       0.49658530379140947     
 CDOM          14           6   2.8576043844698537E-003   100.00000000000000       0.34993774911115533     
 CDOM          14           7   2.8576043844698537E-003   100.00000000000000       0.24659696394160643     
 CDOM          14           8   2.8576043844698537E-003   100.00000000000000       0.17377394345044514     
 CDOM          14           9   2.8576043844698537E-003   100.00000000000000       0.12245642825298191     
 CDOM          14          10   2.8576043844698537E-003   100.00000000000000        8.6293586499370495E-002
 CDOM          14          11   2.8576043844698537E-003   100.00000000000000        6.0810062625217952E-002
 CDOM          14          12   2.8576043844698537E-003   100.00000000000000        4.2852126867040187E-002
 CDOM          14          13   2.8576043844698537E-003   100.00000000000000        3.0197383422318501E-002
 abs          14           1  0.58175901981031974        7.7360533292086947E-003   3.8007360485110189E-003   6.3000000000000000E-003  0.57545085661056727        0.0000000000000000        8.1631997525217011E-006
 abs          14           2  0.41061995412137131        5.9280501921964183E-003   2.9006927515397825E-003   5.1000000000000004E-003  0.40551336487189787        0.0000000000000000        6.5892494734407194E-006
 abs          14           3  0.29406566716316668        4.6133777743405787E-003   2.2506133737591823E-003   8.3000000000000001E-003  0.28576043844698534        0.0000000000000000        5.2287161813537698E-006
 abs          14           4  0.21327624582612797        3.7160454866780046E-003   1.8006278060829280E-003   1.1900000000000001E-002  0.20137197748638810        0.0000000000000000        4.2683397398806285E-006
 abs          14           5  0.16340787548667784        3.0107100620031537E-003   1.4505989414354370E-003   2.1499999999999998E-002  0.14190443413776258        0.0000000000000000        3.4413489152787565E-006
 abs          14           6  0.14070113903598580        2.4048410948608180E-003   1.1505671903231970E-003   4.0700000000000000E-002   9.9998364615154905E-002   0.0000000000000000        2.7744208309224083E-006
 abs          14           7  0.12546991608799871        2.0000392126534520E-003   9.5054121214045522E-004   5.5000000000000000E-002   7.0467656535648890E-002   0.0000000000000000        2.2595523497993079E-006
 abs          14           8  0.13455956432799834        1.6963044153810568E-003   8.0052100688721151E-004   8.4900000000000003E-002   4.9657718271060837E-002   0.0000000000000000        1.8460569374983717E-006
 abs          14           9  0.23449468854399588        1.4925696181086611E-003   7.0050080163396782E-004  0.19950000000000001        3.4993202628223911E-002   0.0000000000000000        1.4859157719459437E-006
 abs          14          10  0.30966049091606246        1.2891015920700080E-003   6.0048203961309866E-004  0.28499999999999998        2.4659293113222968E-002   0.0000000000000000        1.1978028395040014E-006
 abs          14          11  0.36857808120506175        9.8429970986264230E-004   4.5045606143035691E-004  0.35120000000000001        1.7377110157770919E-002   0.0000000000000000        9.7104729082284287E-007
 abs          14          12  0.46814623754018780        7.8216553999270206E-004   3.5044451557136050E-004  0.45590000000000003        1.2245442561911244E-002   0.0000000000000000        7.9497827655276691E-007
 abs          14          13  0.65192986044538670        7.7976459888901917E-004   3.5043152647998960E-004  0.64329999999999998        8.6292175267134608E-003   0.0000000000000000        6.4291867331951956E-007
 CDOM          15           1   2.3804944364751684E-003   100.00000000000000        2.0137527074704766     
 CDOM          15           2   2.3804944364751684E-003   100.00000000000000        1.4190675485932573     
 CDOM          15           3   2.3804944364751684E-003   100.00000000000000        1.0000000000000000     
 CDOM          15           4   2.3804944364751684E-003   100.00000000000000       0.70468808971871344     
 CDOM          15           5   2.3804944364751684E-003   100.00000000000000       0.49658530379140947     
 CDOM          15           6   2.3804944364751684E-003   100.00000000000000       0.34993774911115533     
 CDOM          15           7   2.3804944364751684E-003   100.00000000000000       0.24659696394160643     
 CDOM          15           8   2.3804944364751684E-003   100.00000000000000       0.17377394345044514     
 CDOM          15           9   2.3804944364751684E-003   100.00000000000000       0.12245642825298191     
 CDOM          15          10   2.3804944364751684E-003   100.00000000000000        8.6293586499370495E-002
 CDOM          15          11   2.3804944364751684E-003   100.00000000000000        6.0810062625217952E-002
 CDOM          15          12   2.3804944364751684E-003   100.00000000000000        4.2852126867040187E-002
 CDOM          15          13   2.3804944364751684E-003   100.00000000000000        3.0197383422318501E-002
 abs          15           1  0.48568087731418313        7.7360942859232354E-003   3.8007362700868447E-003   6.3000000000000000E-003  0.47937271165702772        0.0000000000000000        8.1656571553941415E-006
 abs          15           2  0.34291483167393383        5.9280887396924564E-003   2.9006929600817362E-003   5.1000000000000004E-003  0.33780824044087049        0.0000000000000000        6.5912330633410221E-006
 abs          15           3  0.24635467393772095        4.6134119049360293E-003   2.2506135584057039E-003   8.3000000000000001E-003  0.23804944364751685        0.0000000000000000        5.2302902041086660E-006
 abs          15           4  0.17965487732722757        3.7160804203462891E-003   1.8006279950740734E-003   1.1900000000000001E-002  0.16775060770257116        0.0000000000000000        4.2696246564152378E-006
 abs          15           5  0.13971529767595739        3.0107433895257699E-003   1.4505991217373343E-003   2.1499999999999998E-002  0.11821185529107817        0.0000000000000000        3.4423848792347854E-006
 abs          15           6  0.12400526174320153        2.4048726556231991E-003   1.1505673610669215E-003   4.0700000000000000E-002   8.3302486487174865E-002   0.0000000000000000        2.7752560266699042E-006
 abs          15           7  0.11370453030401868        2.0000693278847321E-003   9.5054137506385644E-004   5.5000000000000000E-002   5.8702270071466181E-002   0.0000000000000000        2.2602325524898166E-006
 abs          15           8  0.12626863717147740        1.6963334063103690E-003   8.0052116372813912E-004   8.4900000000000003E-002   4.1366790558813517E-002   0.0000000000000000        1.8466126638995904E-006
 abs          15           9  0.22865217097976792        1.4925974847360055E-003   7.0050095239242182E-004  0.19950000000000001        2.9150684616684405E-002   0.0000000000000000        1.4863630835145544E-006
 abs          15          10  0.30554333841994319        1.2891284147026679E-003   6.0048218472354142E-004  0.28499999999999998        2.0542140256524018E-002   0.0000000000000000        1.1981634192065261E-006
 abs          15          11  0.36567677291571316        9.8432508696420090E-004   4.5045619872047634E-004  0.35120000000000001        1.4475801576103791E-002   0.0000000000000000        9.7133960933446655E-007
 abs          15          12  0.46610172017740403        7.8219027463599330E-004   3.5044464938578071E-004  0.45590000000000003        1.0200924959811725E-002   0.0000000000000000        7.9521759225733792E-007
 abs          15          13  0.65048911343550753        7.7978861076675977E-004   3.5043165638424818E-004  0.64329999999999998        7.1884703232936676E-003   0.0000000000000000        6.4311221387254513E-007
 CDOM          16           1   1.6649942548404085E-003   100.00000000000000        2.0137527074704766     
 CDOM          16           2   1.6649942548404085E-003   100.00000000000000        1.4190675485932573     
 CDOM          16           3   1.6649942548404085E-003   100.00000000000000        1.0000000000000000     
 CDOM          16           4   1.6649942548404085E-003   100.00000000000000       0.70468808971871344     
 CDOM          16           5   1.6649942548404085E-003   100.00000000000000       0.49658530379140947     
 CDOM          16           6   1.6649942548404085E-003   100.00000000000000       0.34993774911115533     
 CDOM          16           7   1.6649942548404085E-003   100.00000000000000       0.24659696394160643     
 CDOM          16           8   1.6649942548404085E-003   100.00000000000000       0.17377394345044514     
 CDOM          16           9   1.6649942548404085E-003   100.00000000000000       0.12245642825298191     
 CDOM          16          10   1.6649942548404085E-003   100.00000000000000        8.6293586499370495E-002
 CDOM          16          11   1.6649942548404085E-003   100.00000000000000        6.0810062625217952E-002
 CDOM          16          12   1.6649942548404085E-003   100.00000000000000        4.2852126867040187E-002
 CDOM          16          13   1.6649942548404085E-003   100.00000000000000        3.0197383422318501E-002
 abs          16           1  0.34159683820570202        7.7361557489323734E-003   3.8007366026017240E-003   6.3000000000000000E-003  0.33528866886076614        0.0000000000000000        8.1693449359423876E-006
 abs          16           2  0.24138052577362479        5.9281465872304687E-003   2.9006932730369166E-003   5.1000000000000004E-003  0.23627393156382356        0.0000000000000000        6.5942098012345407E-006
 abs          16           3  0.17480465813635276        4.6134631241103105E-003   2.2506138355014365E-003   8.3000000000000001E-003  0.16649942548404084        0.0000000000000000        5.2326523119108105E-006
 abs          16           4  0.12923443363651971        3.7161328446776122E-003   1.8006282786897057E-003   1.1900000000000001E-002  0.11733016208361202        0.0000000000000000        4.2715529076822946E-006
 abs          16           5  0.10418461172461939        3.0107934035430092E-003   1.4505993923131675E-003   2.1499999999999998E-002   8.2681167785087564E-002   0.0000000000000000        3.4439395318188497E-006
 abs          16           6   9.8967210691575783E-002   2.4049200182949463E-003   1.1505676172989757E-003   4.0700000000000000E-002   5.8264434182185784E-002   0.0000000000000000        2.7765093899934914E-006
 abs          16           7   9.6060514075706704E-002   2.0001145212738040E-003   9.5054161956009122E-004   5.5000000000000000E-002   4.1058252822386204E-002   0.0000000000000000        2.2612533205043144E-006
 abs          16           8  0.11383510919522789        1.6963769124795818E-003   8.0052139909651463E-004   8.4900000000000003E-002   2.8933261748595316E-002   0.0000000000000000        1.8474466325725924E-006
 abs          16           9  0.21989041198530515        1.4926393036853597E-003   7.0050117863293784E-004  0.19950000000000001        2.0388924950949155E-002   0.0000000000000000        1.4870343559868985E-006
 abs          16          10  0.29936903127963727        1.2891686669478679E-003   6.0048240248818791E-004  0.28499999999999998        1.4367832575102570E-002   0.0000000000000000        1.1987045347183439E-006
 abs          16          11  0.36132581226903387        9.8436316992672529E-004   4.5045640474930358E-004  0.35120000000000001        1.0124840490747333E-002   0.0000000000000000        9.7177828649772181E-007
 abs          16          12  0.46303565008086051        7.8222739347288419E-004   3.5044485019868830E-004  0.45590000000000003        7.1348545041314219E-003   0.0000000000000000        7.9557672905582723E-007
 abs          16          13  0.64832849039359397        7.7982464496231287E-004   3.5043185132924609E-004  0.64329999999999998        5.0278469909373295E-003   0.0000000000000000        6.4340265671964550E-007
 CDOM          17           1   1.3014649829566803E-003   100.00000000000000        2.0137527074704766     
 CDOM          17           2   1.3014649829566803E-003   100.00000000000000        1.4190675485932573     
 CDOM          17           3   1.3014649829566803E-003   100.00000000000000        1.0000000000000000     
 CDOM          17           4   1.3014649829566803E-003   100.00000000000000       0.70468808971871344     
 CDOM          17           5   1.3014649829566803E-003   100.00000000000000       0.49658530379140947     
 CDOM          17           6   1.3014649829566803E-003   100.00000000000000       0.34993774911115533     
 CDOM          17           7   1.3014649829566803E-003   100.00000000000000       0.24659696394160643     
 CDOM          17           8   1.3014649829566803E-003   100.00000000000000       0.17377394345044514     
 CDOM          17           9   1.3014649829566803E-003   100.00000000000000       0.12245642825298191     
 CDOM          17          10   1.3014649829566803E-003   100.00000000000000        8.6293586499370495E-002
 CDOM          17          11   1.3014649829566803E-003   100.00000000000000        6.0810062625217952E-002
 CDOM          17          12   1.3014649829566803E-003   100.00000000000000        4.2852126867040187E-002
 CDOM          17          13   1.3014649829566803E-003   100.00000000000000        3.0197383422318501E-002
 abs          17           1  0.26839104202538350        7.7363119113375931E-003   3.8007374474403363E-003   6.3000000000000000E-003  0.26208286331070324        0.0000000000000000        8.1787146802555804E-006
 abs          17           2  0.18979327406739102        5.9282935636118519E-003   2.9006940681791400E-003   5.1000000000000004E-003  0.18468667229443017        0.0000000000000000        6.6017729608598962E-006
 abs          17           3  0.13845173694951551        4.6135932594479935E-003   2.2506145395336133E-003   8.3000000000000001E-003  0.13014649829566802        0.0000000000000000        5.2386538474839670E-006
 abs          17           4  0.10361696371967449        3.7162660420232410E-003   1.8006289992873457E-003   1.1900000000000001E-002   9.1712687267554091E-002   0.0000000000000000        4.2764521203950752E-006
 abs          17           5   8.6132286283064532E-002   3.0109204768727468E-003   1.4506000797798815E-003   2.1499999999999998E-002   6.4628838393542457E-002   0.0000000000000000        3.4478895220685292E-006
 abs          17           6   8.6245952362163134E-002   2.4050403552072041E-003   1.1505682683216709E-003   4.0700000000000000E-002   4.5543172668284879E-002   0.0000000000000000        2.7796938782567986E-006
 abs          17           7   8.7095995194184428E-002   2.0002293465717596E-003   9.5054224076495319E-004   5.5000000000000000E-002   3.2093731347343189E-002   0.0000000000000000        2.2638468412341430E-006
 abs          17           8  0.10751791980064694        1.6964874509664139E-003   8.0052199710972834E-004   8.4900000000000003E-002   2.2616070235104868E-002   0.0000000000000000        1.8495655420708700E-006
 abs          17           9  0.21543876407081472        1.4927455553610681E-003   7.0050175345450340E-004  0.19950000000000001        1.5937275330920302E-002   0.0000000000000000        1.4887398944125352E-006
 abs          17          10  0.29623200818764361        1.2892709380132471E-003   6.0048295577465164E-004  0.28499999999999998        1.1230808108267402E-002   0.0000000000000000        1.2000793762858680E-006
 abs          17          11  0.35911518960466982        9.8445992937780261E-004   4.5045692821793390E-004  0.35120000000000001        7.9142167118123937E-003   0.0000000000000000        9.7289285738987938E-007
 abs          17          12  0.46147785074547443        7.8232170331760521E-004   3.5044536041494822E-004  0.45590000000000003        5.5770542562669952E-003   0.0000000000000000        7.9648920742358258E-007
 abs          17          13  0.64723072785070701        7.7991619899988294E-004   3.5043234663658935E-004  0.64329999999999998        3.9300837101064086E-003   0.0000000000000000        6.4414060063450815E-007
 CDOM          18           1   9.3799200972416918E-004   100.00000000000000        2.0137527074704766     
 CDOM          18           2   9.3799200972416918E-004   100.00000000000000        1.4190675485932573     
 CDOM          18           3   9.3799200972416918E-004   100.00000000000000        1.0000000000000000     
 CDOM          18           4   9.3799200972416918E-004   100.00000000000000       0.70468808971871344     
 CDOM          18           5   9.3799200972416918E-004   100.00000000000000       0.49658530379140947     
 CDOM          18           6   9.3799200972416918E-004   100.00000000000000       0.34993774911115533     
 CDOM          18           7   9.3799200972416918E-004   100.00000000000000       0.24659696394160643     
 CDOM          18           8   9.3799200972416918E-004   100.00000000000000       0.17377394345044514     
 CDOM          18           9   9.3799200972416918E-004   100.00000000000000       0.12245642825298191     
 CDOM          18          10   9.3799200972416918E-004   100.00000000000000        8.6293586499370495E-002
 CDOM          18          11   9.3799200972416918E-004   100.00000000000000        6.0810062625217952E-002
 CDOM          18          12   9.3799200972416918E-004   100.00000000000000        4.2852126867040187E-002
 CDOM          18          13   9.3799200972416918E-004   100.00000000000000        3.0197383422318501E-002
 abs          18           1  0.19519658300121515        7.7364680740534672E-003   3.8007382922806291E-003   6.3000000000000000E-003  0.18888839491677195        0.0000000000000000        8.1880844432080161E-006
 abs          18           2  0.13821401152006949        5.9284405402856158E-003   2.9006948633229449E-003   5.1000000000000004E-003  0.13310740218393396        0.0000000000000000        6.6093361355306533E-006
 abs          18           3  0.10210444562781192        4.6137233950445554E-003   2.2506152435671908E-003   8.3000000000000001E-003   9.3799200972416924E-002   0.0000000000000000        5.2446553949959842E-006
 abs          18           4   7.8003461101737018E-002   3.7163992396338393E-003   1.8006297198864191E-003   1.1900000000000001E-002   6.6099179750394171E-002   0.0000000000000000        4.2813513428538652E-006
 abs          18           5   6.8082756549799298E-002   3.0110475504552718E-003   1.4506007672479629E-003   2.1499999999999998E-002   4.6579304710279129E-002   0.0000000000000000        3.4518395201759287E-006
 abs          18           6   7.3526664135085323E-002   2.4051606923588481E-003   1.1505689193456613E-003   4.0700000000000000E-002   3.2823881256712470E-002   0.0000000000000000        2.7828783728550124E-006
 abs          18           7   7.8132864620313713E-002   2.0003441720981376E-003   9.5054286197105093E-004   5.5000000000000000E-002   2.3130598179946591E-002   0.0000000000000000        2.2664403671232649E-006
 abs          18           8  0.10120170872993350        1.6965979896731403E-003   8.0052259512413174E-004   8.4900000000000003E-002   1.6299857045477716E-002   0.0000000000000000        1.8516844557842966E-006
 abs          18           9  0.21098780556950206        1.4928518072481432E-003   7.0050232827721247E-004  0.19950000000000001        1.1486315124065803E-002   0.0000000000000000        1.4904454362310016E-006
 abs          18          10  0.29309547091690569        1.2893732092820742E-003   6.0048350906221595E-004  0.28499999999999998        8.0942694626850963E-003   0.0000000000000000        1.2014542205883660E-006
 abs          18          11  0.35690490929275859        9.8455668902136377E-004   4.5045745168760559E-004  0.35120000000000001        5.7039352853280774E-003   0.0000000000000000        9.7400743049925431E-007
 abs          18          12  0.45992029266178464        7.8241601334993690E-004   3.5044587063222317E-004  0.45590000000000003        4.0194952600970096E-003   0.0000000000000000        7.9740168760653230E-007
 abs          18          13  0.64613313531501715        7.8000775321958164E-004   3.5043284194491794E-004  0.64329999999999998        2.8324904364711843E-003   0.0000000000000000        6.4487854601736339E-007
 CDOM          19           1   5.7452729415069059E-004   100.00000000000000        2.0137527074704766     
 CDOM          19           2   5.7452729415069059E-004   100.00000000000000        1.4190675485932573     
 CDOM          19           3   5.7452729415069059E-004   100.00000000000000        1.0000000000000000     
 CDOM          19           4   5.7452729415069059E-004   100.00000000000000       0.70468808971871344     
 CDOM          19           5   5.7452729415069059E-004   100.00000000000000       0.49658530379140947     
 CDOM          19           6   5.7452729415069059E-004   100.00000000000000       0.34993774911115533     
 CDOM          19           7   5.7452729415069059E-004   100.00000000000000       0.24659696394160643     
 CDOM          19           8   5.7452729415069059E-004   100.00000000000000       0.17377394345044514     
 CDOM          19           9   5.7452729415069059E-004   100.00000000000000       0.12245642825298191     
 CDOM          19          10   5.7452729415069059E-004   100.00000000000000        8.6293586499370495E-002
 CDOM          19          11   5.7452729415069059E-004   100.00000000000000        6.0810062625217952E-002
 CDOM          19          12   5.7452729415069059E-004   100.00000000000000        4.2852126867040187E-002
 CDOM          19          13   5.7452729415069059E-004   100.00000000000000        3.0197383422318501E-002
 abs          19           1  0.12200378686604653        7.7366242480421069E-003   3.8007391371819078E-003   6.3000000000000000E-003  0.11569558941116401        0.0000000000000000        8.1974548825264059E-006
 abs          19           2   8.6635920790889928E-002   5.9285875275690413E-003   2.9006956585241484E-003   5.1000000000000004E-003   8.1529303891033772E-002   0.0000000000000000        6.6168998561569345E-006
 abs          19           3   6.5757980072444794E-002   4.6138535400350889E-003   2.2506159476515897E-003   8.3000000000000001E-003   5.7452729415069057E-002   0.0000000000000000        5.2506573757358680E-006
 abs          19           4   5.2390540391550118E-002   3.7165324468594438E-003   1.8006304405375096E-003   1.1900000000000001E-002   4.0486254140631152E-002   0.0000000000000000        4.2862509189680553E-006
 abs          19           5   5.0033636880031131E-002   3.0111746332107336E-003   1.4506014547656699E-003   2.1499999999999998E-002   2.8530181090227716E-002   0.0000000000000000        3.4557898034179946E-006
 abs          19           6   6.0807664874898859E-002   2.4052810381971529E-003   1.1505695704166466E-003   4.0700000000000000E-002   2.0104878811801528E-002   0.0000000000000000        2.7860630973292359E-006
 abs          19           7   6.9169937677994883E-002   2.0004590059133137E-003   9.5054348322199105E-004   5.5000000000000000E-002   1.4167668643914656E-002   0.0000000000000000        2.2690340802287143E-006
 abs          19           8   9.4885641155970396E-002   1.6967085363592169E-003   8.0052319318170341E-004   8.4900000000000003E-002   9.9837873524479363E-003   0.0000000000000000        1.8538035224536840E-006
 abs          19           9  0.20653694818865559        1.4929580668051198E-003   7.0050290314141569E-004  0.19950000000000001        7.0354560375543874E-003   0.0000000000000000        1.4921511011657542E-006
 abs          19          10  0.28995900490456833        1.2894754879334580E-003   6.0048406238972000E-004  0.28499999999999998        4.9578020754041888E-003   0.0000000000000000        1.2028291641354106E-006
 abs          19          11  0.35469467919580416        9.8465345564961899E-004   4.5045797519506443E-004  0.35120000000000001        3.4937040737200507E-003   0.0000000000000000        9.7512208406523239E-007
 abs          19          12  0.45836276996398595        7.8251033019013504E-004   3.5044638088632863E-004  0.45590000000000003        2.4619716497522709E-003   0.0000000000000000        7.9831423365780018E-007
 abs          19          13  0.64503556771535020        7.8009931404821552E-004   3.5043333728900086E-004  0.64329999999999998        1.7349220988055569E-003   0.0000000000000000        6.4561654466956334E-007
 CDOM          20           1   2.1107524006564880E-004   100.00000000000000        2.0137527074704766     
 CDOM          20           2   2.1107524006564880E-004   100.00000000000000        1.4190675485932573     
 CDOM          20           3   2.1107524006564880E-004   100.00000000000000        1.0000000000000000     
 CDOM          20           4   2.1107524006564880E-004   100.00000000000000       0.70468808971871344     
 CDOM          20           5   2.1107524006564880E-004   100.00000000000000       0.49658530379140947     
 CDOM          20           6   2.1107524006564880E-004   100.00000000000000       0.34993774911115533     
 CDOM          20           7   2.1107524006564880E-004   100.00000000000000       0.24659696394160643     
 CDOM          20           8   2.1107524006564880E-004   100.00000000000000       0.17377394345044514     
 CDOM          20           9   2.1107524006564880E-004   100.00000000000000       0.12245642825298191     
 CDOM          20          10   2.1107524006564880E-004   100.00000000000000        8.6293586499370495E-002
 CDOM          20          11   2.1107524006564880E-004   100.00000000000000        6.0810062625217952E-002
 CDOM          20          12   2.1107524006564880E-004   100.00000000000000        4.2852126867040187E-002
 CDOM          20          13   2.1107524006564880E-004   100.00000000000000        3.0197383422318501E-002
 abs          20           1   4.8813540442879187E-002   7.7367804443513218E-003   3.8007399822039406E-003   6.3000000000000000E-003   4.2505333616218111E-002   0.0000000000000000        8.2068266610793068E-006
 abs          20           2   3.5059626813527152E-002   5.9287345358600670E-003   2.9006964538390028E-003   5.1000000000000004E-003   2.9953002348869353E-002   0.0000000000000000        6.6244646577993093E-006
 abs          20           3   2.9412780666779163E-002   4.6139837036261013E-003   2.2506166518366172E-003   8.3000000000000001E-003   2.1107524006564880E-002   0.0000000000000000        5.2566602142860920E-006
 abs          20           4   2.6778511922073426E-002   3.7166656731231862E-003   1.8006311612915964E-003   1.1900000000000001E-002   1.4874220770878089E-002   0.0000000000000000        4.2911511953355858E-006
 abs          20           5   3.1985145961735725E-002   3.0113017341290163E-003   1.4506021423816378E-003   2.1499999999999998E-002   1.0481686221084490E-002   0.0000000000000000        3.4597406512393159E-006
 abs          20           6   4.8089108688443960E-002   2.4054014012354305E-003   1.1505702215806836E-003   4.0700000000000000E-002   7.3863194401669894E-003   0.0000000000000000        2.7892482769681304E-006
 abs          20           7   6.0207322964507502E-002   2.0005738561406777E-003   9.5054410456172104E-004   5.5000000000000000E-002   5.2050513363434718E-003   0.0000000000000000        2.2716281640307753E-006
 abs          20           8   8.8569793605987698E-002   1.6968190988447592E-003   8.0052379132475023E-004   8.4900000000000003E-002   3.6679376830957185E-003   0.0000000000000000        1.8559228919826406E-006
 abs          20           9  0.20208624585611790        1.4930643415488405E-003   7.0050347808777922E-004  0.19950000000000001        2.5847519991080052E-003   0.0000000000000000        1.4938570098762005E-006
 abs          20          10  0.28682264815295222        1.2895777812026302E-003   6.0048461579630618E-004  0.28499999999999998        1.8214439486480458E-003   0.0000000000000000        1.2042043041910487E-006
 abs          20          11  0.35248452609359943        9.8475023610787777E-004   4.5045849877734358E-004  0.35120000000000001        1.2835498567025016E-003   0.0000000000000000        9.7623689693884547E-007
 abs          20          12  0.45680530152348858        7.8260466051021001E-004   3.5044689121336024E-004  0.45590000000000003        9.0450229657841456E-004   0.0000000000000000        7.9922691013125263E-007
 abs          20          13  0.64393803835017083        7.8019088796283374E-004   3.5043383270387892E-004  0.64329999999999998        6.3739199552203206E-004   0.0000000000000000        6.4635464879742253E-007
 CDOM          21           1   1.2037882253197281E-004   100.00000000000000        2.0137527074704766     
 CDOM          21           2   1.2037882253197281E-004   100.00000000000000        1.4190675485932573     
 CDOM          21           3   1.2037882253197281E-004   100.00000000000000        1.0000000000000000     
 CDOM          21           4   1.2037882253197281E-004   100.00000000000000       0.70468808971871344     
 CDOM          21           5   1.2037882253197281E-004   100.00000000000000       0.49658530379140947     
 CDOM          21           6   1.2037882253197281E-004   100.00000000000000       0.34993774911115533     
 CDOM          21           7   1.2037882253197281E-004   100.00000000000000       0.24659696394160643     
 CDOM          21           8   1.2037882253197281E-004   100.00000000000000       0.17377394345044514     
 CDOM          21           9   1.2037882253197281E-004   100.00000000000000       0.12245642825298191     
 CDOM          21          10   1.2037882253197281E-004   100.00000000000000        8.6293586499370495E-002
 CDOM          21          11   1.2037882253197281E-004   100.00000000000000        6.0810062625217952E-002
 CDOM          21          12   1.2037882253197281E-004   100.00000000000000        4.2852126867040187E-002
 CDOM          21          13   1.2037882253197281E-004   100.00000000000000        3.0197383422318501E-002
 abs          21           1   3.0549555535828617E-002   7.7372926040298242E-003   3.8007427529878012E-003   6.3000000000000000E-003   2.4241317979586827E-002   0.0000000000000000        8.2375562417894344E-006
 abs          21           2   2.2189217328552939E-002   5.9292165684986572E-003   2.9006990616355774E-003   5.1000000000000004E-003   1.7082568059298944E-002   0.0000000000000000        6.6492692539934318E-006
 abs          21           3   2.0343158596410976E-002   4.6144105033581861E-003   2.2506189608231678E-003   8.3000000000000001E-003   1.2037882253197281E-002   0.0000000000000000        5.2763432136951935E-006
 abs          21           4   2.0387259468214351E-002   3.7171025152019084E-003   1.8006335246072422E-003   1.1900000000000001E-002   8.4829522492643940E-003   0.0000000000000000        4.3072189499552601E-006
 abs          21           5   2.7481308110987590E-002   3.0117184915144641E-003   1.4506043970390931E-003   2.1499999999999998E-002   5.9778354157091883E-003   0.0000000000000000        3.4726952784014286E-006
 abs          21           6   4.4915309112066454E-002   2.4057960654582759E-003   1.1505723567141293E-003   4.0700000000000000E-002   4.2125094197489792E-003   0.0000000000000000        2.7996923174709190E-006
 abs          21           7   5.7970785349956630E-002   2.0009504441395763E-003   9.5054614190279510E-004   5.5000000000000000E-002   2.9685052159249938E-003   0.0000000000000000        2.2801340316325658E-006
 abs          21           8   8.6993733142126092E-002   1.6971816275583656E-003   8.0052575260509083E-004   8.4900000000000003E-002   2.0918702699302214E-003   0.0000000000000000        1.8628721958556501E-006
 abs          21           9  0.20097561551505347        1.4934128109771547E-003   7.0050536330738637E-004  0.19950000000000001        1.4741160644564969E-003   0.0000000000000000        1.4994505969531748E-006
 abs          21          10  0.28604000074680330        1.2899131955803160E-003   6.0048643038808944E-004  0.28499999999999998        1.0387920334855166E-003   0.0000000000000000        1.2087133178311948E-006
 abs          21          11  0.35193300426600305        9.8506757426161640E-004   4.5046021557675531E-004  0.35120000000000001        7.3202437369192643E-004   0.0000000000000000        9.7989231111482155E-007
 abs          21          12  0.45641665107705393        7.8291396478663870E-004   3.5044856454949570E-004  0.45590000000000003        5.1584885752450145E-004   0.0000000000000000        8.0221952942916706E-007
 abs          21          13  0.64366416132084681        7.8049115412728886E-004   3.5043545714382861E-004  0.64329999999999998        3.6351254599252162E-004   0.0000000000000000        6.4877485433701099E-007
 CDOM          22           1   8.5981257718069259E-005   100.00000000000000        2.0137527074704766     
 CDOM          22           2   8.5981257718069259E-005   100.00000000000000        1.4190675485932573     
 CDOM          22           3   8.5981257718069259E-005   100.00000000000000        1.0000000000000000     
 CDOM          22           4   8.5981257718069259E-005   100.00000000000000       0.70468808971871344     
 CDOM          22           5   8.5981257718069259E-005   100.00000000000000       0.49658530379140947     
 CDOM          22           6   8.5981257718069259E-005   100.00000000000000       0.34993774911115533     
 CDOM          22           7   8.5981257718069259E-005   100.00000000000000       0.24659696394160643     
 CDOM          22           8   8.5981257718069259E-005   100.00000000000000       0.17377394345044514     
 CDOM          22           9   8.5981257718069259E-005   100.00000000000000       0.12245642825298191     
 CDOM          22          10   8.5981257718069259E-005   100.00000000000000        8.6293586499370495E-002
 CDOM          22          11   8.5981257718069259E-005   100.00000000000000        6.0810062625217952E-002
 CDOM          22          12   8.5981257718069259E-005   100.00000000000000        4.2852126867040187E-002
 CDOM          22          13   8.5981257718069259E-005   100.00000000000000        3.0197383422318501E-002
 abs          22           1   2.3622769944241125E-002   7.7378482015541504E-003   3.8007457587704080E-003   6.3000000000000000E-003   1.7314499052147877E-002   0.0000000000000000        8.2708920932490377E-006
 abs          22           2   1.7307997439099245E-002   5.9297394838156705E-003   2.9007018906074427E-003   5.1000000000000004E-003   1.2201321261494563E-002   0.0000000000000000        6.6761776046814120E-006
 abs          22           3   1.6903423467396064E-002   4.6148735012951254E-003   2.2506214656420062E-003   8.3000000000000001E-003   8.5981257718069255E-003   0.0000000000000000        5.2976955891399062E-006
 abs          22           4   1.7963321474756384E-002   3.7175764072079520E-003   1.8006360883629949E-003   1.1900000000000001E-002   6.0589968252958608E-003   0.0000000000000000        4.3246494605223732E-006
 abs          22           5   2.5773189647057035E-002   3.0121705953822988E-003   1.4506068429210180E-003   2.1499999999999998E-002   4.2697028984294890E-003   0.0000000000000000        3.4867486275461629E-006
 abs          22           6   4.3711619801310067E-002   2.4062242023740808E-003   1.1505746729348438E-003   4.0700000000000000E-002   3.0088087791607307E-003   0.0000000000000000        2.8110221493395421E-006
 abs          22           7   5.7122561072223833E-002   2.0013589717309929E-003   9.5054835203706471E-004   5.5000000000000000E-002   2.1202717109156696E-003   0.0000000000000000        2.2893613081640312E-006
 abs          22           8   8.6396000632541478E-002   1.6975749034530362E-003   8.0052788022768099E-004   8.4900000000000003E-002   1.4941302216497916E-003   0.0000000000000000        1.8704108916759261E-006
 abs          22           9  0.20055440129027882        1.4937908351750789E-003   7.0050740841829718E-004  0.19950000000000001        1.0528957716853895E-003   0.0000000000000000        1.5055185934443508E-006
 abs          22          10  0.28574317671477673        1.2902770574884045E-003   6.0048839888101225E-004  0.28499999999999998        7.4196311002188765E-004   0.0000000000000000        1.2136047548590909E-006
 abs          22          11  0.35172383642439536        9.8541182684531688E-004   4.5046207798323315E-004  0.35120000000000001        5.2285256664307955E-004   0.0000000000000000        9.8385775226883965E-007
 abs          22          12  0.45626925344235431        7.8324950211505566E-004   3.5045037980644246E-004  0.45590000000000003        3.6844797639223821E-004   0.0000000000000000        8.0546596202229183E-007
 abs          22          13  0.64356029230096956        7.8081688679351182E-004   3.5043721935755289E-004  0.64329999999999998        2.5964090064457194E-004   0.0000000000000000        6.5140032499118232E-007
 CDOM          23           1   5.1590077780147258E-005   100.00000000000000        2.0137527074704766     
 CDOM          23           2   5.1590077780147258E-005   100.00000000000000        1.4190675485932573     
 CDOM          23           3   5.1590077780147258E-005   100.00000000000000        1.0000000000000000     
 CDOM          23           4   5.1590077780147258E-005   100.00000000000000       0.70468808971871344     
 CDOM          23           5   5.1590077780147258E-005   100.00000000000000       0.49658530379140947     
 CDOM          23           6   5.1590077780147258E-005   100.00000000000000       0.34993774911115533     
 CDOM          23           7   5.1590077780147258E-005   100.00000000000000       0.24659696394160643     
 CDOM          23           8   5.1590077780147258E-005   100.00000000000000       0.17377394345044514     
 CDOM          23           9   5.1590077780147258E-005   100.00000000000000       0.12245642825298191     
 CDOM          23          10   5.1590077780147258E-005   100.00000000000000        8.6293586499370495E-002
 CDOM          23          11   5.1590077780147258E-005   100.00000000000000        6.0810062625217952E-002
 CDOM          23          12   5.1590077780147258E-005   100.00000000000000        4.2852126867040187E-002
 CDOM          23          13   5.1590077780147258E-005   100.00000000000000        3.0197383422318501E-002
 abs          23           1   1.6697270106841803E-002   7.7384037667233684E-003   3.8007487643779733E-003   6.3000000000000000E-003   1.0388965880838402E-002   0.0000000000000000        8.3042260034020929E-006
 abs          23           2   1.2427683605109272E-002   5.9302623686808172E-003   2.9007047194145631E-003   5.1000000000000004E-003   7.3209805207209043E-003   0.0000000000000000        6.7030843883670481E-006
 abs          23           3   1.3464326824735860E-002   4.6153364722694729E-003   2.2506239703149779E-003   8.3000000000000001E-003   5.1590077780147257E-003   0.0000000000000000        5.3190467211333668E-006
 abs          23           4   1.5539833414889209E-002   3.7180502716169903E-003   1.8006386519694479E-003   1.1900000000000001E-002   3.6354913359331817E-003   0.0000000000000000        4.3420789560272387E-006
 abs          23           5   2.4065388245865980E-002   3.0126226729219564E-003   1.4506092886605077E-003   2.1499999999999998E-002   2.5618874447076870E-003   0.0000000000000000        3.5008011582969610E-006
 abs          23           6   4.2508153920806833E-002   2.4066523143574190E-003   1.1505769890206737E-003   4.0700000000000000E-002   1.8053315694854159E-003   0.0000000000000000        2.8223513214177048E-006
 abs          23           7   5.6274494243056909E-002   2.0017674755318884E-003   9.5055056204262748E-004   5.5000000000000000E-002   1.2721956550095644E-003   0.0000000000000000        2.2985880473469191E-006
 abs          23           8   8.5798379075025619E-002   1.6979681564453647E-003   8.0053000772636949E-004   8.4900000000000003E-002   8.9650112587713756E-004   0.0000000000000000        1.8779491484817805E-006
 abs          23           9  0.20013326525206163        1.4941688373588406E-003   7.0050945341011131E-004  0.19950000000000001        6.3175366582503582E-004   0.0000000000000000        1.5115862365669822E-006
 abs          23          10  0.28544640777985009        1.2906408982070684E-003   6.0049036725930019E-004  0.28499999999999998        4.4518928394303892E-004   0.0000000000000000        1.2184959070351438E-006
 abs          23          11  0.35151470740902757        9.8575605938153784E-004   4.5046394028125413E-004  0.35120000000000001        3.1371958606506200E-004   0.0000000000000000        9.8782296249619652E-007
 abs          23          12  0.45612188316801711        7.8358501990352430E-004   3.5045219495767805E-004  0.45590000000000003        2.2107445581153414E-004   0.0000000000000000        8.0871220556007301E-007
 abs          23          13  0.64345644256159418        7.8114260049075897E-004   3.5043898146865500E-004  0.64329999999999998        1.5578853595143408E-004   0.0000000000000000        6.5402564275160268E-007
 CDOM          24           1   1.7196710956505198E-005   100.00000000000000        2.0137527074704766     
 CDOM          24           2   1.7196710956505198E-005   100.00000000000000        1.4190675485932573     
 CDOM          24           3   1.7196710956505198E-005   100.00000000000000        1.0000000000000000     
 CDOM          24           4   1.7196710956505198E-005   100.00000000000000       0.70468808971871344     
 CDOM          24           5   1.7196710956505198E-005   100.00000000000000       0.49658530379140947     
 CDOM          24           6   1.7196710956505198E-005   100.00000000000000       0.34993774911115533     
 CDOM          24           7   1.7196710956505198E-005   100.00000000000000       0.24659696394160643     
 CDOM          24           8   1.7196710956505198E-005   100.00000000000000       0.17377394345044514     
 CDOM          24           9   1.7196710956505198E-005   100.00000000000000       0.12245642825298191     
 CDOM          24          10   1.7196710956505198E-005   100.00000000000000        8.6293586499370495E-002
 CDOM          24          11   1.7196710956505198E-005   100.00000000000000        6.0810062625217952E-002
 CDOM          24          12   1.7196710956505198E-005   100.00000000000000        4.2852126867040187E-002
 CDOM          24          13   1.7196710956505198E-005   100.00000000000000        3.0197383422318501E-002
 abs          24           1   9.7713298865545594E-003   7.7389593621600633E-003   3.8007517701492861E-003   6.3000000000000000E-003   3.4629923248249549E-003   0.0000000000000000        8.3375617296037837E-006
 abs          24           2   7.5470594387294122E-003   5.9307852820330003E-003   2.9007075483757985E-003   5.1000000000000004E-003   2.4403294460914639E-003   0.0000000000000000        6.7299926379481520E-006
 abs          24           3   1.0025011494666867E-002   4.6157994684667188E-003   2.2506264751244046E-003   8.3000000000000001E-003   1.7196710956505197E-003   0.0000000000000000        5.3403990163475219E-006
 abs          24           4   1.3116191248739553E-002   3.7185241618424066E-003   1.8006412157155673E-003   1.1900000000000001E-002   1.2118317393384516E-003   0.0000000000000000        4.3595094011000177E-006
 abs          24           5   2.2357478247909558E-002   3.0130747750910314E-003   1.4506117345332425E-003   2.1499999999999998E-002   8.5396339345491926E-004   0.0000000000000000        3.5148544546368893E-006
 abs          24           6   4.1304611513534172E-002   2.4070804496645190E-003   1.1505793052326849E-003   4.0700000000000000E-002   6.0177783242345716E-004   0.0000000000000000        2.8336811107150114E-006
 abs          24           7   5.5426373486454759E-002   2.0021760015882816E-003   9.5055277216859265E-004   5.5000000000000000E-002   4.2406567116555401E-004   0.0000000000000000        2.3078152892073219E-006
 abs          24           8   8.5200719515544920E-002   1.6983614308623191E-003   8.0053213534096517E-004   8.4900000000000003E-002   2.9883402772893844E-004   0.0000000000000000        1.8854878159757578E-006
 abs          24           9  0.19971210243435350        1.4945468601363567E-003   7.0051149851333772E-004  0.19950000000000001        2.1058478014325465E-004   0.0000000000000000        1.5176542102579436E-006
 abs          24          10  0.28514961997376864        1.2910047587479628E-003   6.0049233574482647E-004  0.28499999999999998        1.4839658644298537E-004   0.0000000000000000        1.2233873256836925E-006
 abs          24          11  0.35130556509541006        9.8610031067172528E-004   4.5046580268073405E-004  0.35120000000000001        1.0457330702128527E-004   0.0000000000000000        9.9178838875025392E-007
 abs          24          12  0.45597450352258639        7.8392055597117536E-004   3.5045401020780405E-004  0.45590000000000003        7.3691563960398071E-005   0.0000000000000000        8.1195862595487820E-007
 abs          24          13  0.64335258621853908        7.8146833193305657E-004   3.5044074367575784E-004  0.64329999999999998        5.1929567435637300E-005   0.0000000000000000        6.5665110354069011E-007
 CDOM          25           1   2.4762669474441211E-010   100.00000000000000        2.0137527074704766     
 CDOM          25           2   2.4762669474441211E-010   100.00000000000000        1.4190675485932573     
 CDOM          25           3   2.4762669474441211E-010   100.00000000000000        1.0000000000000000     
 CDOM          25           4   2.4762669474441211E-010   100.00000000000000       0.70468808971871344     
 CDOM          25           5   2.4762669474441211E-010   100.00000000000000       0.49658530379140947     
 CDOM          25           6   2.4762669474441211E-010   100.00000000000000       0.34993774911115533     
 CDOM          25           7   2.4762669474441211E-010   100.00000000000000       0.24659696394160643     
 CDOM          25           8   2.4762669474441211E-010   100.00000000000000       0.17377394345044514     
 CDOM          25           9   2.4762669474441211E-010   100.00000000000000       0.12245642825298191     
 CDOM          25          10   2.4762669474441211E-010   100.00000000000000        8.6293586499370495E-002
 CDOM          25          11   2.4762669474441211E-010   100.00000000000000        6.0810062625217952E-002
 CDOM          25          12   2.4762669474441211E-010   100.00000000000000        4.2852126867040187E-002
 CDOM          25          13   2.4762669474441211E-010   100.00000000000000        3.0197383422318501E-002
 abs          25           1   6.3083207695235526E-003   7.7378483938475729E-003   3.8007457598107156E-003   6.3000000000000000E-003   4.9865892698352516E-008   0.0000000000000000        8.2709036308543629E-006
 abs          25           2   5.1067113268183839E-003   5.9297396647977150E-003   2.9007018915865553E-003   5.1000000000000004E-003   3.5139900667720371E-008   0.0000000000000000        6.6761869177157763E-006
 abs          25           3   8.3053224656487144E-003   4.6148736615396436E-003   2.2506214665089291E-003   8.3000000000000001E-003   2.4762669474441211E-008   0.0000000000000000        5.2977029792400500E-006
 abs          25           4   1.1904342105451505E-002   3.7175765712229294E-003   1.8006360892503159E-003   1.1900000000000001E-002   1.7449958248279876E-008   0.0000000000000000        4.3246554932571834E-006
 abs          25           5   2.1503499050269183E-002   3.0121707518563582E-003   1.4506068437675427E-003   2.1499999999999998E-002   1.2296777743651651E-008   0.0000000000000000        3.4867534914386044E-006
 abs          25           6   4.0702819691463436E-002   2.4062243505531297E-003   1.1505746737364925E-003   4.0700000000000000E-002   8.6653928178694732E-009   0.0000000000000000        2.8110260706171691E-006
 abs          25           7   5.5002295470900853E-002   2.0013591131232151E-003   9.5054835280199655E-004   5.5000000000000000E-002   6.1063991114866974E-009   0.0000000000000000        2.2893645017430215E-006
 abs          25           8   8.4901874716607553E-002   1.6975750395666154E-003   8.0052788096405538E-004   8.4900000000000003E-002   4.3031067249336107E-009   0.0000000000000000        1.8704135008337320E-006
 abs          25           9  0.19950150855304166        1.4937909660100151E-003   7.0050740912611412E-004  0.19950000000000001        3.0323480578492152E-009   0.0000000000000000        1.5055206935901569E-006
 abs          25          10  0.28500121574330733        1.2902771834217436E-003   6.0048839956231156E-004  0.28499999999999998        2.1368595602480141E-009   0.0000000000000000        1.2136064477952971E-006
 abs          25          11  0.35120098536494421        9.8541194599182941E-004   4.5046207862781579E-004  0.35120000000000001        1.5058194815083430E-009   0.0000000000000000        9.8385912471600920E-007
 abs          25          12  0.45590080652821874        7.8324961824520077E-004   3.5045038043470656E-004  0.45590000000000003        1.0611330538853380E-009   0.0000000000000000        8.0546708561915037E-007
 abs          25          13  0.64330065214900145        7.8081699953024355E-004   3.5043721996745863E-004  0.64329999999999998        7.4776782467984339E-010   0.0000000000000000        6.5140123367186319E-007
 CDOM          26           1   1.1886525513890295E-015   100.00000000000000        2.0137527074704766     
 CDOM          26           2   1.1886525513890295E-015   100.00000000000000        1.4190675485932573     
 CDOM          26           3   1.1886525513890295E-015   100.00000000000000        1.0000000000000000     
 CDOM          26           4   1.1886525513890295E-015   100.00000000000000       0.70468808971871344     
 CDOM          26           5   1.1886525513890295E-015   100.00000000000000       0.49658530379140947     
 CDOM          26           6   1.1886525513890295E-015   100.00000000000000       0.34993774911115533     
 CDOM          26           7   1.1886525513890295E-015   100.00000000000000       0.24659696394160643     
 CDOM          26           8   1.1886525513890295E-015   100.00000000000000       0.17377394345044514     
 CDOM          26           9   1.1886525513890295E-015   100.00000000000000       0.12245642825298191     
 CDOM          26          10   1.1886525513890295E-015   100.00000000000000        8.6293586499370495E-002
 CDOM          26          11   1.1886525513890295E-015   100.00000000000000        6.0810062625217952E-002
 CDOM          26          12   1.1886525513890295E-015   100.00000000000000        4.2852126867040187E-002
 CDOM          26          13   1.1886525513890295E-015   100.00000000000000        3.0197383422318501E-002
 abs          26           1   6.3081667424359170E-003   7.7361123699425400E-003   3.8007363679213890E-003   6.3000000000000000E-003   2.3936522936013478E-013   0.0000000000000000        8.1667421965524038E-006
 abs          26           2   5.1065921090658953E-003   5.9281057599459199E-003   2.9006930521613072E-003   5.1000000000000004E-003   1.6867782622287509E-013   0.0000000000000000        6.5921088972171347E-006
 abs          26           3   8.3052309853166566E-003   4.6134269749521168E-003   2.2506136399344906E-003   8.3000000000000001E-003   1.1886525513890294E-013   0.0000000000000000        5.2309851977917352E-006
 abs          26           4   1.1904270192081961E-002   3.7160958449509898E-003   1.8006280785211849E-003   1.1900000000000001E-002   8.3762929577760992E-014   0.0000000000000000        4.2701919981973352E-006
 abs          26           5   2.1503442842357570E-002   3.0107581049532432E-003   1.4505992013477968E-003   2.1499999999999998E-002   5.9026738833395507E-014   0.0000000000000000        3.4428422985466016E-006
 abs          26           6   4.0702775624840426E-002   2.4048865909557220E-003   1.1505674364570705E-003   4.0700000000000000E-002   4.1595439830830882E-014   0.0000000000000000        2.7756247988282679E-006
 abs          26           7   5.5002260532918353E-002   2.0000826249577499E-003   9.5054144700102143E-004   5.5000000000000000E-002   2.9311811035397898E-014   0.0000000000000000        2.2605328890457143E-006
 abs          26           8   8.4901846858059876E-002   1.6963462069593275E-003   8.0052123297965001E-004   8.4900000000000003E-002   2.0655684124730453E-014   0.0000000000000000        1.8468580392203474E-006
 abs          26           9  0.19950148656060393        1.4926097889609046E-003   7.0050101895827849E-004  0.19950000000000001        1.4555814587689456E-014   0.0000000000000000        1.4865605893724471E-006
 abs          26          10  0.28500119832263976        1.2891402579623692E-003   6.0048224879557632E-004  0.28499999999999998        1.0257309176098664E-014   0.0000000000000000        1.1983226294941271E-006
 abs          26          11  0.35120097146868684        9.8433629196439726E-004   4.5045625933952740E-004  0.35120000000000001        7.2282036089591970E-015   0.0000000000000000        9.7146867958989357E-007
 abs          26          12  0.45590079532326477        7.8220119596529862E-004   3.5044470847017228E-004  0.45590000000000003        5.0936289932953695E-015   0.0000000000000000        7.9532325966425353E-007
 abs          26          13  0.64330064319767322        7.7979921296631263E-004   3.5043171374214775E-004  0.64329999999999998        3.5894196850211666E-015   0.0000000000000000        6.4319766972847359E-007
 CDOM          27           1   1.8592176196514468E-014   100.00000000000000        2.0137527074704766     
 CDOM          27           2   1.8592176196514468E-014   100.00000000000000        1.4190675485932573     
 CDOM          27           3   1.8592176196514468E-014   100.00000000000000        1.0000000000000000     
 CDOM          27           4   1.8592176196514468E-014   100.00000000000000       0.70468808971871344     
 CDOM          27           5   1.8592176196514468E-014   100.00000000000000       0.49658530379140947     
 CDOM          27           6   1.8592176196514468E-014   100.00000000000000       0.34993774911115533     
 CDOM          27           7   1.8592176196514468E-014   100.00000000000000       0.24659696394160643     
 CDOM          27           8   1.8592176196514468E-014   100.00000000000000       0.17377394345044514     
 CDOM          27           9   1.8592176196514468E-014   100.00000000000000       0.12245642825298191     
 CDOM          27          10   1.8592176196514468E-014   100.00000000000000        8.6293586499370495E-002
 CDOM          27          11   1.8592176196514468E-014   100.00000000000000        6.0810062625217952E-002
 CDOM          27          12   1.8592176196514468E-014   100.00000000000000        4.2852126867040187E-002
 CDOM          27          13   1.8592176196514468E-014   100.00000000000000        3.0197383422318501E-002
 abs          27           1   6.3075261932683292E-003   7.7254364920720780E-003   3.8006786114221100E-003   6.3000000000000000E-003   3.7440045153499151E-012   0.0000000000000000        7.5261895243246708E-006
 abs          27           2   5.1060750641171411E-003   5.9180578748913668E-003   2.9006386931031622E-003   5.1000000000000004E-003   2.6383553898201696E-012   0.0000000000000000        6.0750614787849462E-006
 abs          27           3   8.3048206984172816E-003   4.6045304100600648E-003   2.2505655095184248E-003   8.3000000000000001E-003   1.8592176196514466E-012   0.0000000000000000        4.8206965580641685E-006
 abs          27           4   1.1903935263806549E-002   3.7069899491203014E-003   1.8005788156247409E-003   1.1900000000000001E-002   1.3101685127635513E-012   0.0000000000000000        3.9352624963789131E-006
 abs          27           5   2.1503172806310967E-002   3.0020708709998277E-003   1.4505522034121089E-003   2.1499999999999998E-002   9.2326014646895472E-013   0.0000000000000000        3.1728053877054985E-006
 abs          27           6   4.0702557921273259E-002   2.3966598850673070E-003   1.1505229299782142E-003   4.0700000000000000E-002   6.5061042892862731E-013   0.0000000000000000        2.5579206226462935E-006
 abs          27           7   5.5002083230042499E-002   1.9922327147588806E-003   9.5049897898684551E-004   5.5000000000000000E-002   4.5847742031278713E-013   0.0000000000000000        2.0832295840205871E-006
 abs          27           8   8.4901702001352775E-002   1.6887893600745494E-003   8.0048035043800338E-004   8.4900000000000003E-002   3.2308357749938172E-013   0.0000000000000000        1.7020010296838798E-006
 abs          27           9  0.19950136996348425        1.4853460053902176E-003   7.0046172188916107E-004  0.19950000000000001        2.2767314904752715E-013   0.0000000000000000        1.3699632565519090E-006
 abs          27          10  0.28500110433319847        1.2821486046119097E-003   6.0044442395095041E-004  0.28499999999999998        1.6043855648254582E-013   0.0000000000000000        1.1043330380463324E-006
 abs          27          11  0.35120089527233100        9.7772143430348356E-004   4.5042047295958186E-004  0.35120000000000001        1.1305913988491312E-013   0.0000000000000000        8.9527221792620262E-007
 abs          27          12  0.45590073294271966        7.7575380305529404E-004   3.5040982807452913E-004  0.45590000000000003        7.9671429310740254E-014   0.0000000000000000        7.3294263995057244E-007
 abs          27          13  0.64330059274896967        7.7354021790108094E-004   3.5039785257884483E-004  0.64329999999999998        5.6143507326145057E-014   0.0000000000000000        5.9274891351707374E-007
 CDOM          28           1   1.1620149599226112E-008   100.00000000000000        2.0137527074704766     
 CDOM          28           2   1.1620149599226112E-008   100.00000000000000        1.4190675485932573     
 CDOM          28           3   1.1620149599226112E-008   100.00000000000000        1.0000000000000000     
 CDOM          28           4   1.1620149599226112E-008   100.00000000000000       0.70468808971871344     
 CDOM          28           5   1.1620149599226112E-008   100.00000000000000       0.49658530379140947     
 CDOM          28           6   1.1620149599226112E-008   100.00000000000000       0.34993774911115533     
 CDOM          28           7   1.1620149599226112E-008   100.00000000000000       0.24659696394160643     
 CDOM          28           8   1.1620149599226112E-008   100.00000000000000       0.17377394345044514     
 CDOM          28           9   1.1620149599226112E-008   100.00000000000000       0.12245642825298191     
 CDOM          28          10   1.1620149599226112E-008   100.00000000000000        8.6293586499370495E-002
 CDOM          28          11   1.1620149599226112E-008   100.00000000000000        6.0810062625217952E-002
 CDOM          28          12   1.1620149599226112E-008   100.00000000000000        4.2852126867040187E-002
 CDOM          28          13   1.1620149599226112E-008   100.00000000000000        3.0197383422318501E-002
 abs          28           1   6.3084638699055003E-003   7.7020643188972487E-003   3.8005521679652342E-003   6.3000000000000000E-003   2.3400107716653556E-006   0.0000000000000000        6.1238591338349109E-006
 abs          28           2   5.1065920927730810E-003   5.8960605354327041E-003   2.9005196874966909E-003   5.1000000000000004E-003   1.6489777206060721E-006   0.0000000000000000        4.9431150524745842E-006
 abs          28           3   8.3050844868234244E-003   4.5850535990810404E-003   2.2504601399710284E-003   8.3000000000000001E-003   1.1620149599226112E-006   0.0000000000000000        3.9224718635021002E-006
 abs          28           4   1.1904020875950090E-002   3.6870548602358885E-003   1.8004709667938761E-003   1.1900000000000001E-002   8.1885810233243223E-007   0.0000000000000000        3.2020178477568164E-006
 abs          28           5   2.1503158666441636E-002   2.9830523379261922E-003   1.4504493131481807E-003   2.1499999999999998E-002   5.7703955188333238E-007   0.0000000000000000        2.5816268897539330E-006
 abs          28           6   4.0702487944500557E-002   2.3786495633855266E-003   1.1504254941379158E-003   4.0700000000000000E-002   4.0663289950880789E-007   0.0000000000000000        2.0813116010419306E-006
 abs          28           7   5.5001981617559328E-002   1.9750472933068005E-003   9.5040600585678976E-004   5.5000000000000000E-002   2.8654936117164338E-007   0.0000000000000000        1.6950681981562646E-006
 abs          28           8   8.4901586800641096E-002   1.6722455276900132E-003   8.0039084830480303E-004   8.4900000000000003E-002   2.0192792193416311E-007   0.0000000000000000        1.3848727191548231E-006
 abs          28           9  0.19950125699866483        1.4694437620732259E-003   7.0037569075281610E-004  0.19950000000000001        1.4229620156865489E-007   0.0000000000000000        1.1147024632503415E-006
 abs          28          10  0.28500099884069696        1.2668421225719233E-003   6.0036161588311403E-004  0.28499999999999998        1.0027443845764439E-007   0.0000000000000000        8.9856625852675662E-007
 abs          28          11  0.35120079912126284        9.6323985249319709E-004   4.5034212760198817E-004  0.35120000000000001        7.0662202484334107E-008   0.0000000000000000        7.2845906036467567E-007
 abs          28          12  0.45590064617063669        7.6163884356931870E-004   3.5033346614370998E-004  0.45590000000000003        4.9794812484002352E-008   0.0000000000000000        5.9637582414470699E-007
 abs          28          13  0.64330051739374960        7.5983770852995549E-004   3.5032372200314703E-004  0.64329999999999998        3.5089811287253153E-008   0.0000000000000000        4.8230393831837037E-007
 CDOM          29           1   5.5195444057935646E-008   100.00000000000000        2.0137527074704766     
 CDOM          29           2   5.5195444057935646E-008   100.00000000000000        1.4190675485932573     
 CDOM          29           3   5.5195444057935646E-008   100.00000000000000        1.0000000000000000     
 CDOM          29           4   5.5195444057935646E-008   100.00000000000000       0.70468808971871344     
 CDOM          29           5   5.5195444057935646E-008   100.00000000000000       0.49658530379140947     
 CDOM          29           6   5.5195444057935646E-008   100.00000000000000       0.34993774911115533     
 CDOM          29           7   5.5195444057935646E-008   100.00000000000000       0.24659696394160643     
 CDOM          29           8   5.5195444057935646E-008   100.00000000000000       0.17377394345044514     
 CDOM          29           9   5.5195444057935646E-008   100.00000000000000       0.12245642825298191     
 CDOM          29          10   5.5195444057935646E-008   100.00000000000000        8.6293586499370495E-002
 CDOM          29          11   5.5195444057935646E-008   100.00000000000000        6.0810062625217952E-002
 CDOM          29          12   5.5195444057935646E-008   100.00000000000000        4.2852126867040187E-002
 CDOM          29          13   5.5195444057935646E-008   100.00000000000000        3.0197383422318501E-002
 abs          29           1   6.3155824542026054E-003   7.6744576118572515E-003   3.8004028156801476E-003   6.3000000000000000E-003   1.1114997491170313E-005   0.0000000000000000        4.4674567114350643E-006
 abs          29           2   5.1114386906882499E-003   5.8700777523362363E-003   2.9003791206401387E-003   5.1000000000000004E-003   7.8326063492811000E-006   0.0000000000000000        3.6060843389688259E-006
 abs          29           3   8.3083810526261900E-003   4.5620480098810421E-003   2.2503356797334562E-003   8.3000000000000001E-003   5.5195444057935643E-006   0.0000000000000000        2.8615082203963159E-006
 abs          29           4   1.1906225482281312E-002   3.6635079630547140E-003   1.8003435780801259E-003   1.1900000000000001E-002   3.8895572034362777E-006   0.0000000000000000        2.3359250778745435E-006
 abs          29           5   2.1504624264229579E-002   2.9605880567073707E-003   1.4503277813867868E-003   2.1499999999999998E-002   2.7409246355411719E-006   0.0000000000000000        1.8833395940363507E-006
 abs          29           6   4.0703449848246101E-002   2.3573761597252933E-003   1.1503104050241137E-003   4.0700000000000000E-002   1.9314969454824694E-006   0.0000000000000000        1.5183513006184534E-006
 abs          29           7   5.5002597683230910E-002   1.9547482440126847E-003   9.5029618800010864E-004   5.5000000000000000E-002   1.3611028928095711E-006   0.0000000000000000        1.2365803380998366E-006
 abs          29           8   8.4901969440593625E-002   1.6527043095695445E-003   8.0028513031477132E-004   8.4900000000000003E-002   9.5915299744459163E-007   0.0000000000000000        1.0102875961807401E-006
 abs          29           9  0.19950148909761126        1.4506603751264042E-003   7.0027407262943380E-004  0.19950000000000001        6.7590369351720722E-007   0.0000000000000000        8.1319391773507537E-007
 abs          29          10  0.28500113182025760        1.2487624360006310E-003   6.0026380477876335E-004  0.28499999999999998        4.7630128261846348E-007   0.0000000000000000        6.5551897497854383E-007
 abs          29          11  0.35120086706679621        9.4613452028802225E-004   4.5024958775475817E-004  0.35120000000000001        3.3564384097897804E-007   0.0000000000000000        5.3142295521645858E-007
 abs          29          12  0.45590067159026287        7.4496655774908499E-004   3.5024326907742253E-004  0.45590000000000003        2.3652421712532776E-007   0.0000000000000000        4.3506604575413370E-007
 abs          29          13  0.64330051852451353        7.4365259989278055E-004   3.5023616056541993E-004  0.64329999999999998        1.6667579873826141E-007   0.0000000000000000        3.5184871485485308E-007
 CDOM          30           1   1.5457036232707256E-008   100.00000000000000        2.0137527074704766     
 CDOM          30           2   1.5457036232707256E-008   100.00000000000000        1.4190675485932573     
 CDOM          30           3   1.5457036232707256E-008   100.00000000000000        1.0000000000000000     
 CDOM          30           4   1.5457036232707256E-008   100.00000000000000       0.70468808971871344     
 CDOM          30           5   1.5457036232707256E-008   100.00000000000000       0.49658530379140947     
 CDOM          30           6   1.5457036232707256E-008   100.00000000000000       0.34993774911115533     
 CDOM          30           7   1.5457036232707256E-008   100.00000000000000       0.24659696394160643     
 CDOM          30           8   1.5457036232707256E-008   100.00000000000000       0.17377394345044514     
 CDOM          30           9   1.5457036232707256E-008   100.00000000000000       0.12245642825298191     
 CDOM          30          10   1.5457036232707256E-008   100.00000000000000        8.6293586499370495E-002
 CDOM          30          11   1.5457036232707256E-008   100.00000000000000        6.0810062625217952E-002
 CDOM          30          12   1.5457036232707256E-008   100.00000000000000        4.2852126867040187E-002
 CDOM          30          13   1.5457036232707256E-008   100.00000000000000        3.0197383422318501E-002
 abs          30           1   6.3050996513758567E-003   7.6331164419924736E-003   3.8001791599511794E-003   6.3000000000000000E-003   3.1126648563083495E-006   0.0000000000000000        1.9869865195484120E-006
 abs          30           2   5.1037973325911623E-003   5.8311684159929158E-003   2.9001686211305214E-003   5.1000000000000004E-003   2.1934578515265046E-006   0.0000000000000000        1.6038747396354828E-006
 abs          30           3   8.3028184139429823E-003   4.5275970349937279E-003   2.2501492999593160E-003   8.3000000000000001E-003   1.5457036232707257E-006   0.0000000000000000        1.2727103197107476E-006
 abs          30           4   1.1902128186133318E-002   3.6282463769935804E-003   1.8001528128995352E-003   1.1900000000000001E-002   1.0892389335539415E-006   0.0000000000000000        1.0389471997638758E-006
 abs          30           5   2.1501605224883140E-002   2.9269476929938754E-003   1.4501457870190967E-003   2.1499999999999998E-002   7.6757370333337562E-007   0.0000000000000000        8.3765117980962477E-007
 abs          30           6   4.0701216215726567E-002   2.3255191405942002E-003   1.1501380585506146E-003   4.0700000000000000E-002   5.4090004672031495E-007   0.0000000000000000        6.7531567984651915E-007
 abs          30           7   5.5000931158494526E-002   1.9243503249944658E-003   9.5013173525822009E-004   5.5000000000000000E-002   3.8116582065210154E-007   0.0000000000000000        5.4999267387500168E-007
 abs          30           8   8.4900717947677923E-002   1.6234412461946725E-003   8.0012681714191323E-004   8.4900000000000003E-002   2.6860301402139524E-007   0.0000000000000000        4.4934466389787626E-007
 abs          30           9  0.19950055096483876        1.4225321673948790E-003   7.0012189902560629E-004  0.19950000000000001        1.8928134484342579E-007   0.0000000000000000        3.6168349391779917E-007
 abs          30          10  0.28500042493886724        1.2216880227950708E-003   6.0011733220332133E-004  0.28499999999999998        1.3338430931710275E-007   0.0000000000000000        2.9155455793373762E-007
 abs          30          11  0.35120033035482212        9.2051920719533648E-004   4.5011100891092674E-004  0.35120000000000001        9.3994334131119120E-008   0.0000000000000000        2.3636048794628170E-007
 abs          30          12  0.45590025974060372        7.1999973359545459E-004   3.5010819855875138E-004  0.45590000000000003        6.6236687763240824E-008   0.0000000000000000        1.9350391595602183E-007
 abs          30          13  0.64330020316762693        7.1941532579558739E-004   3.5010503691255415E-004  0.64329999999999998        4.6676204969173053E-008   0.0000000000000000        1.5649142196443377E-007
 CDOM          31           1   1.5457013680457732E-008   100.00000000000000        2.0137527074704766     
 CDOM          31           2   1.5457013680457732E-008   100.00000000000000        1.4190675485932573     
 CDOM          31           3   1.5457013680457732E-008   100.00000000000000        1.0000000000000000     
 CDOM          31           4   1.5457013680457732E-008   100.00000000000000       0.70468808971871344     
 CDOM          31           5   1.5457013680457732E-008   100.00000000000000       0.49658530379140947     
 CDOM          31           6   1.5457013680457732E-008   100.00000000000000       0.34993774911115533     
 CDOM          31           7   1.5457013680457732E-008   100.00000000000000       0.24659696394160643     
 CDOM          31           8   1.5457013680457732E-008   100.00000000000000       0.17377394345044514     
 CDOM          31           9   1.5457013680457732E-008   100.00000000000000       0.12245642825298191     
 CDOM          31          10   1.5457013680457732E-008   100.00000000000000        8.6293586499370495E-002
 CDOM          31          11   1.5457013680457732E-008   100.00000000000000        6.0810062625217952E-002
 CDOM          31          12   1.5457013680457732E-008   100.00000000000000        4.2852126867040187E-002
 CDOM          31          13   1.5457013680457732E-008   100.00000000000000        3.0197383422318501E-002
 abs          31           1   6.3050996453009028E-003   7.6331164164343233E-003   3.8001791598129098E-003   6.3000000000000000E-003   3.1126603148429952E-006   0.0000000000000000        1.9869849860594259E-006
 abs          31           2   5.1037973281530293E-003   5.8311683919381871E-003   2.9001686210003855E-003   5.1000000000000004E-003   2.1934546512099597E-006   0.0000000000000000        1.6038735018192095E-006
 abs          31           3   8.3028184107055217E-003   4.5275970136952693E-003   2.2501492998440913E-003   8.3000000000000001E-003   1.5457013680457732E-006   0.0000000000000000        1.2727093374759722E-006
 abs          31           4   1.1902128183742264E-002   3.6282463551939818E-003   1.8001528127815994E-003   1.1900000000000001E-002   1.0892373443237780E-006   0.0000000000000000        1.0389463979395692E-006
 abs          31           5   2.1501605223116758E-002   2.9269476721965576E-003   1.4501457869065832E-003   2.1499999999999998E-002   7.6757258342180751E-007   0.0000000000000000        8.3765053333877756E-007
 abs          31           6   4.0701216214416192E-002   2.3255191208993906E-003   1.1501380584440658E-003   4.0700000000000000E-002   5.4089925753197135E-007   0.0000000000000000        6.7531515866071984E-007
 abs          31           7   5.5000931157513928E-002   1.9243503062017085E-003   9.5013173515655120E-004   5.5000000000000000E-002   3.8116526452047527E-007   0.0000000000000000        5.4999224940925940E-007
 abs          31           8   8.4900717946939222E-002   1.6234412281035115E-003   8.0012681704404003E-004   8.4900000000000003E-002   2.6860262212206189E-007   0.0000000000000000        4.4934431710886365E-007
 abs          31           9  0.19950055096428349        1.4225321500053144E-003   7.0012189893152877E-004  0.19950000000000001        1.8928106867663321E-007   0.0000000000000000        3.6168321478271245E-007
 abs          31          10  0.28500042493844757        1.2216880060569883E-003   6.0011733211276822E-004  0.28499999999999998        1.3338411470565324E-007   0.0000000000000000        2.9155433292179158E-007
 abs          31          11  0.35120033035450254        9.2051919135930651E-004   4.5011100882525384E-004  0.35120000000000001        9.3994196990748535E-008   0.0000000000000000        2.3636030553125195E-007
 abs          31          12  0.45590025974035775        7.1999971816033668E-004   3.5010819847524743E-004  0.45590000000000003        6.6236591122055050E-008   0.0000000000000000        1.9350376661624472E-007
 abs          31          13  0.64330020316743797        7.1941531081149573E-004   3.5010503683149019E-004  0.64329999999999998        4.6676136867280460E-008   0.0000000000000000        1.5649130118964758E-007
 CDOM          32           1   3.4778265130812357E-015   100.00000000000000        2.0137527074704766     
 CDOM          32           2   3.4778265130812357E-015   100.00000000000000        1.4190675485932573     
 CDOM          32           3   3.4778265130812357E-015   100.00000000000000        1.0000000000000000     
 CDOM          32           4   3.4778265130812357E-015   100.00000000000000       0.70468808971871344     
 CDOM          32           5   3.4778265130812357E-015   100.00000000000000       0.49658530379140947     
 CDOM          32           6   3.4778265130812357E-015   100.00000000000000       0.34993774911115533     
 CDOM          32           7   3.4778265130812357E-015   100.00000000000000       0.24659696394160643     
 CDOM          32           8   3.4778265130812357E-015   100.00000000000000       0.17377394345044514     
 CDOM          32           9   3.4778265130812357E-015   100.00000000000000       0.12245642825298191     
 CDOM          32          10   3.4778265130812357E-015   100.00000000000000        8.6293586499370495E-002
 CDOM          32          11   3.4778265130812357E-015   100.00000000000000        6.0810062625217952E-002
 CDOM          32          12   3.4778265130812357E-015   100.00000000000000        4.2852126867040187E-002
 CDOM          32          13   3.4778265130812357E-015   100.00000000000000        3.0197383422318501E-002
 abs          32           1   6.3004631447380619E-003   7.6077190672952195E-003   3.8000417601540670E-003   6.3000000000000000E-003   7.0034825568299449E-013   0.0000000000000000        4.6314403771319400E-007
 abs          32           2   5.1003738455174330E-003   5.8072650045131475E-003   2.9000393036744160E-003   5.1000000000000004E-003   4.9352707443508254E-013   0.0000000000000000        3.7384502390574808E-007
 abs          32           3   8.3002966546987366E-003   4.5064325560793496E-003   2.2500348001283890E-003   8.3000000000000001E-003   3.4778265130812356E-013   0.0000000000000000        2.9665435095354909E-007
 abs          32           4   1.1900242167062184E-002   3.6065839103400403E-003   1.8000356189549396E-003   1.1900000000000001E-002   2.4507829218763099E-013   0.0000000000000000        2.4216681710493806E-007
 abs          32           5   2.1500195247168990E-002   2.9062812018186591E-003   1.4500339813018389E-003   2.1499999999999998E-002   1.7270375355322637E-013   0.0000000000000000        1.9524699629085630E-007
 abs          32           6   4.0700157408552817E-002   2.3059482224451399E-003   1.1500321798834281E-003   4.0700000000000000E-002   1.2170227817867455E-013   0.0000000000000000        1.5740843111820973E-007
 abs          32           7   5.5000128197144567E-002   1.9056757847758969E-003   9.5003070599563764E-004   5.5000000000000000E-002   8.5762145924145632E-014   0.0000000000000000        1.2819705880492659E-007
 abs          32           8   8.4900104737208840E-002   1.6054638888109301E-003   8.0002955963846714E-004   8.4900000000000003E-002   6.0435562781463747E-014   0.0000000000000000        1.0473714839788571E-007
 abs          32           9  0.19950008430436580        1.4052519928459634E-003   7.0002841328129666E-004  0.19950000000000001        4.2588221287545054E-014   0.0000000000000000        8.4304323204656559E-008
 abs          32          10  0.28500006795809307        1.2050552323070655E-003   6.0002734880678114E-004  0.28499999999999998        3.0011412303637966E-014   0.0000000000000000        6.7958063050073248E-008
 abs          32          11  0.35120005509297203        9.0478279463782247E-004   4.5002587491899061E-004  0.35120000000000001        2.1148684806011332E-014   0.0000000000000000        5.5092950891373401E-008
 abs          32          12  0.45590004510358462        7.0466171122927001E-004   3.5002521985775034E-004  0.45590000000000003        1.4903226296011309E-014   0.0000000000000000        4.5103569685794710E-008
 abs          32          13  0.64330003647638734        7.0452549239464850E-004   3.5002448291385506E-004  0.64329999999999998        1.0502126069181906E-014   0.0000000000000000        3.6476376826431295E-008
 CDOM          33           1   7.8251063287628432E-022   100.00000000000000        2.0137527074704766     
 CDOM          33           2   7.8251063287628432E-022   100.00000000000000        1.4190675485932573     
 CDOM          33           3   7.8251063287628432E-022   100.00000000000000        1.0000000000000000     
 CDOM          33           4   7.8251063287628432E-022   100.00000000000000       0.70468808971871344     
 CDOM          33           5   7.8251063287628432E-022   100.00000000000000       0.49658530379140947     
 CDOM          33           6   7.8251063287628432E-022   100.00000000000000       0.34993774911115533     
 CDOM          33           7   7.8251063287628432E-022   100.00000000000000       0.24659696394160643     
 CDOM          33           8   7.8251063287628432E-022   100.00000000000000       0.17377394345044514     
 CDOM          33           9   7.8251063287628432E-022   100.00000000000000       0.12245642825298191     
 CDOM          33          10   7.8251063287628432E-022   100.00000000000000        8.6293586499370495E-002
 CDOM          33          11   7.8251063287628432E-022   100.00000000000000        6.0810062625217952E-002
 CDOM          33          12   7.8251063287628432E-022   100.00000000000000        4.2852126867040187E-002
 CDOM          33          13   7.8251063287628432E-022   100.00000000000000        3.0197383422318501E-002
 abs          33           1   6.3001705599707468E-003   7.6028426661791130E-003   3.8000153788240289E-003   6.3000000000000000E-003   1.5757829055790535E-019   0.0000000000000000        1.7055997074677528E-007
 abs          33           2   5.1001376742247535E-003   5.8026754505215179E-003   2.9000144741873212E-003   5.1000000000000004E-003   1.1104354455439070E-019   0.0000000000000000        1.3767422475311598E-007
 abs          33           3   8.3001092475629614E-003   4.5023688884825936E-003   2.2500128156866905E-003   8.3000000000000001E-003   7.8251063287628427E-020   0.0000000000000000        1.0924756296198678E-007
 abs          33           4   1.1900089181684051E-002   3.6024246270351255E-003   1.8000131172322600E-003   1.1900000000000001E-002   5.5142592306617021E-020   0.0000000000000000        8.9181684050601460E-008
 abs          33           5   2.1500071902732763E-002   2.9023131499300624E-003   1.4500125141411215E-003   2.1499999999999998E-002   3.8858328034687769E-020   0.0000000000000000        7.1902732765797418E-008
 abs          33           6   4.0700057968094630E-002   2.3021905251144927E-003   1.1500118507408693E-003   4.0700000000000000E-002   2.7383000952427253E-020   0.0000000000000000        5.7968094632890945E-008
 abs          33           7   5.5000047210553994E-002   1.9020901957199359E-003   9.5001130795884490E-004   5.5000000000000000E-002   1.9296474631931672E-020   0.0000000000000000        4.7210553994287142E-008
 abs          33           8   8.4900038571078348E-002   1.6020121617463918E-003   8.0001088579504797E-004   8.4900000000000003E-002   1.3597995846681545E-020   0.0000000000000000        3.8571078351885127E-008
 abs          33           9  0.19950003104637376        1.4019341277728475E-003   7.0001046363125105E-004  0.19950000000000001        9.5823457172010169E-021   0.0000000000000000        3.1046373760115629E-008
 abs          33          10  0.28500002502661004        1.2018616676545562E-003   6.0001007162201105E-004  0.28499999999999998        6.7525648984786787E-021   0.0000000000000000        2.5026610086700034E-008
 abs          33          11  0.35120002028883313        9.0176133825999938E-004   4.5000952883998658E-004  0.35120000000000001        4.7584520590105781E-021   0.0000000000000000        2.0288833121511830E-008
 abs          33          12  0.45590001661008867        7.0171674741797410E-004   3.5000928760353124E-004  0.45590000000000003        3.3532244914822441E-021   0.0000000000000000        1.6610088654424517E-008
 abs          33          13  0.64330001343299115        7.0166658272069558E-004   3.5000901621251893E-004  0.64329999999999998        2.3629773613006267E-021   0.0000000000000000        1.3432991160121843E-008
 CDOM          34           1   1.2520166319890249E-028   100.00000000000000        2.0137527074704766     
 CDOM          34           2   1.2520166319890249E-028   100.00000000000000        1.4190675485932573     
 CDOM          34           3   1.2520166319890249E-028   100.00000000000000        1.0000000000000000     
 CDOM          34           4   1.2520166319890249E-028   100.00000000000000       0.70468808971871344     
 CDOM          34           5   1.2520166319890249E-028   100.00000000000000       0.49658530379140947     
 CDOM          34           6   1.2520166319890249E-028   100.00000000000000       0.34993774911115533     
 CDOM          34           7   1.2520166319890249E-028   100.00000000000000       0.24659696394160643     
 CDOM          34           8   1.2520166319890249E-028   100.00000000000000       0.17377394345044514     
 CDOM          34           9   1.2520166319890249E-028   100.00000000000000       0.12245642825298191     
 CDOM          34          10   1.2520166319890249E-028   100.00000000000000        8.6293586499370495E-002
 CDOM          34          11   1.2520166319890249E-028   100.00000000000000        6.0810062625217952E-002
 CDOM          34          12   1.2520166319890249E-028   100.00000000000000        4.2852126867040187E-002
 CDOM          34          13   1.2520166319890249E-028   100.00000000000000        3.0197383422318501E-002
 abs          34           1   6.3000727292975419E-003   7.6012121549590382E-003   3.8000065577583285E-003   6.3000000000000000E-003   2.5212518824659665E-026   0.0000000000000000        7.2729297542288500E-008
 abs          34           2   5.1000587063284083E-003   5.8011408517261529E-003   2.9000061720078382E-003   5.1000000000000004E-003   1.7766961727546521E-026   0.0000000000000000        5.8706328408317832E-008
 abs          34           3   8.3000465847788175E-003   4.5010101291325317E-003   2.2500054647986070E-003   8.3000000000000001E-003   1.2520166319890250E-026   0.0000000000000000        4.6584778817936424E-008
 abs          34           4   1.1900038028390873E-002   3.6010338968768267E-003   1.8000055933821036E-003   1.1900000000000001E-002   8.8228120869240350E-027   0.0000000000000000        3.8028390871784838E-008
 abs          34           5   2.1500030660390138E-002   2.9009863613882365E-003   1.4500053362151103E-003   2.1499999999999998E-002   6.2173305954816729E-027   0.0000000000000000        3.0660390140376524E-008
 abs          34           6   4.0700024718454068E-002   2.3009340723507883E-003   1.1500050533314178E-003   4.0700000000000000E-002   4.3812788204796911E-027   0.0000000000000000        2.4718454066660142E-008
 abs          34           7   5.5000020131279415E-002   1.9008912904110574E-003   9.5000482188112377E-004   5.5000000000000000E-002   3.0874350025288912E-027   0.0000000000000000        2.0131279417751101E-008
 abs          34           8   8.4900016447279056E-002   1.6008580155690447E-003   8.0000464186422854E-004   8.4900000000000003E-002   2.1756786740627762E-027   0.0000000000000000        1.6447279052046943E-008
 abs          34           9  0.19950001323863359        1.4008247407270317E-003   7.0000446184733322E-004  0.19950000000000001        1.5331748486670409E-027   0.0000000000000000        1.3238633572240096E-008
 abs          34          10  0.28500001067171715        1.2007938426594484E-003   6.0000429468878760E-004  0.28499999999999998        1.0804100553119544E-027   0.0000000000000000        1.0671717188394620E-008
 abs          34          11  0.35120000865145895        9.0075106071971776E-004   4.5000406323849365E-004  0.35120000000000001        7.6135209799067070E-028   0.0000000000000000        8.6514589233310493E-009
 abs          34          12  0.45590000708278783        7.0073204652428185E-004   3.5000396037169638E-004  0.45590000000000003        5.3651575553638063E-028   0.0000000000000000        7.0827877998699248E-009
 abs          34          13  0.64330000572802637        7.0071065555441642E-004   3.5000384464654942E-004  0.64329999999999998        3.7807626287292424E-028   0.0000000000000000        5.7280263750625909E-009
 CDOM          35           1   1.8029036904460646E-035   100.00000000000000        2.0137527074704766     
 CDOM          35           2   1.8029036904460646E-035   100.00000000000000        1.4190675485932573     
 CDOM          35           3   1.8029036904460646E-035   100.00000000000000        1.0000000000000000     
 CDOM          35           4   1.8029036904460646E-035   100.00000000000000       0.70468808971871344     
 CDOM          35           5   1.8029036904460646E-035   100.00000000000000       0.49658530379140947     
 CDOM          35           6   1.8029036904460646E-035   100.00000000000000       0.34993774911115533     
 CDOM          35           7   1.8029036904460646E-035   100.00000000000000       0.24659696394160643     
 CDOM          35           8   1.8029036904460646E-035   100.00000000000000       0.17377394345044514     
 CDOM          35           9   1.8029036904460646E-035   100.00000000000000       0.12245642825298191     
 CDOM          35          10   1.8029036904460646E-035   100.00000000000000        8.6293586499370495E-002
 CDOM          35          11   1.8029036904460646E-035   100.00000000000000        6.0810062625217952E-002
 CDOM          35          12   1.8029036904460646E-035   100.00000000000000        4.2852126867040187E-002
 CDOM          35          13   1.8029036904460646E-035   100.00000000000000        3.0197383422318501E-002
 abs          35           1   6.3000358895363958E-003   7.6005981589399325E-003   3.8000032360398649E-003   6.3000000000000000E-003   3.6306021879442768E-033   0.0000000000000000        3.5889536395941273E-008
 abs          35           2   5.1000289696584641E-003   5.8005629731199358E-003   2.9000030456845785E-003   5.1000000000000004E-003   2.5584421203510339E-033   0.0000000000000000        2.8969658463390501E-008
 abs          35           3   8.3000229880690647E-003   4.5004984657832769E-003   2.2500026966998875E-003   8.3000000000000001E-003   1.8029036904460648E-033   0.0000000000000000        2.2988069064066958E-008
 abs          35           4   1.1900018765770666E-002   3.6005101943899424E-003   1.8000027601516495E-003   1.1900000000000001E-002   1.2704847575672561E-033   0.0000000000000000        1.8765770664544457E-008
 abs          35           5   2.1500015129902596E-002   2.9004867371766113E-003   1.4500026332481253E-003   2.1499999999999998E-002   8.9529547682681238E-034   0.0000000000000000        1.5129902598288966E-008
 abs          35           6   4.0700012197750934E-002   2.3004609342419480E-003   1.1500024936542490E-003   4.0700000000000000E-002   6.3090405929889108E-034   0.0000000000000000        1.2197750931953896E-008
 abs          35           7   5.5000009934129845E-002   1.9004398227499503E-003   9.5000237944107722E-004   5.5000000000000000E-002   4.4459057634311740E-034   0.0000000000000000        9.9341298455432210E-009
 abs          35           8   8.4900008116195816E-002   1.6004234027006189E-003   8.0000229060861038E-004   8.4900000000000003E-002   3.1329768395017333E-034   0.0000000000000000        8.1161958124154773E-009
 abs          35           9  0.19950000653283392        1.4004069826512873E-003   7.0000220177614345E-004  0.19950000000000001        2.2077714641614481E-034   0.0000000000000000        6.5328339125945383E-009
 abs          35          10  0.28500000526614439        1.2003917354626223E-003   6.0000211928885275E-004  0.28499999999999998        1.5557902556154179E-034   0.0000000000000000        5.2661443927377880E-009
 abs          35          11  0.35120000426921283        9.0037062397062468E-004   4.5000200507568105E-004  0.35120000000000001        1.0963468632326175E-034   0.0000000000000000        4.2692128261838630E-009
 abs          35          12  0.45590000349512483        7.0036124108529250E-004   3.5000195431427144E-004  0.45590000000000003        7.7258257672049717E-035   0.0000000000000000        3.4951247862714042E-009
 abs          35          13  0.64330000282659416        7.0035068533929364E-004   3.5000189720768560E-004  0.64329999999999998        5.4442974013912844E-035   0.0000000000000000        2.8265942063470085E-009
 ed   5.1479113101959229        6.6247568130493164        8.0732395648956299        8.5075433254241943        8.5161354541778564        8.3519830703735352        8.4486072063446045        8.3182427883148193        7.8892357349395752        7.8253405094146729        7.3955733776092529        6.7436313629150391        3.3235081434249878     
 es   3.8728317022323608        4.4540216922760010        5.0482072830200195        4.9460418224334717        4.6630649566650391        4.3368896245956421        4.2126188278198242        4.0433905124664307        3.7322288751602173        3.6368581056594849        3.4224590063095093        3.0634193420410156        1.5072223544120789     
 PAR   6.9280344810370140E-002  0.57211744187907387        2.5698609906949188        6.7802420092652564        12.558067119301111        17.799560110352040        23.498626790438518        25.082207595788553        14.443611652638124        9.9138371140157435        7.0694395757748509        3.7463056308669040       0.64385813290036265     
 chl2c           1   3.7477407714772232E-002   3.7477407714772232E-002  0.60826437499999997        6.2664126587405497E-005   1.4236146308085714E-016
 chl           1   3.1713984512132374E-005   8.4621606578279631E-004   3.7477407714772232E-002
 chl2c           2   8.4440530659303778E-002   3.2640259920490348E-002  0.48302390000000001        3.4893808816083674E-005   1.7853311462344098E-006
 chl           2   7.1454933647127638E-005   8.4621606578279631E-004   8.4440530659303778E-002
 chl2c           3   3.7922212503796585E-002   3.7922212503796585E-002  0.75128689999999998        6.2664126587405497E-005   1.5351148954357172E-016
 chl           3   3.2090385470741914E-005   8.4621606578279631E-004   3.7922212503796585E-002
 chl2c           4   6.4704321706583495E-002   3.7976509103863923E-002  0.77318742499999993        6.2664126587405497E-005   2.2124709089494548E-006
 chl           4   5.4753836553689475E-005   8.4621606578279631E-004   6.4704321706583495E-002
 chl2c           5   5.9496434057544879E-002   2.5710500362372445E-002  0.48489679999999996        8.3194515115761193E-005   2.8210260400542438E-006
 chl           5   5.0346838356281202E-005   8.4621606578279631E-004   5.9496434057544879E-002
 chl2c           6   3.1261039902252048E-002   3.1261039902252048E-002  0.29222855000000003        3.4893808816083674E-005   1.0208324903691330E-016
 chl           6   2.6453594198362740E-005   8.4621606578279631E-004   3.1261039902252048E-002
 chl2c           7   8.7070845216589116E-002   4.3064391842467263E-002  0.22770740000000000        1.8418691555737845E-005   1.2983161679805277E-006
 chl           7   7.3680748083564847E-005   8.4621606578279631E-004   8.7070845216589116E-002
 chl2c           8   4.7969800906495587E-002   4.7969800906495587E-002  0.49578364999999996        1.8418691555737845E-005   7.3424097340445728E-017
 chl           8   4.0592816199478711E-005   8.4621606578279631E-004   4.7969800906495587E-002
 chl2c           9   2.4803669054600401E-002   2.4803669054600401E-002  0.28700202499999999        8.3194515115761193E-005   1.3645335305622434E-016
 chl           9   2.0989263244362444E-005   8.4621606578279631E-004   2.4803669054600401E-002
 chl2c          10   6.8022447511887282E-002   2.5387016219684602E-002  0.39094662499999999        8.3194515115761193E-005   3.4255779906203410E-006
 chl          10   5.7561687918426020E-005   8.4621606578279631E-004   6.8022447511887282E-002
 chl2c          11   2.1820572217820047E-002   2.1820572217820047E-002  0.49737575000000001        6.2664126587405497E-005   1.4135841544523700E-016
 chl          11   1.8464918775293068E-005   8.4621606578279631E-004   2.1820572217820047E-002
 chl2c          12   4.5290941298723353E-002   4.5290941298723353E-002  0.30768942500000002        1.8418691555737845E-005   7.2799465300615421E-017
 chl          12   3.8325922161405244E-005   8.4621606578279631E-004   4.5290941298723353E-002
 chl2c          13   3.7935816987997487E-002   3.7935816987997487E-002  0.75666275000000005        6.2664126587405497E-005   1.2768563150711206E-016
 chl          13   3.2101897803839400E-005   8.4621606578279631E-004   3.7935816987997487E-002
 chl2c          14   4.6856526101924839E-002   4.6856526101924839E-002  0.39804095000000000        1.8418691555737845E-005   8.0866746731238817E-017
 chl          14   3.9650745174219742E-005   8.4621606578279631E-004   4.6856526101924839E-002
 chl2c          15   8.4152429275187068E-002   2.0954299823745293E-002  0.25607262500000000        6.2664126587405497E-005   3.9272803918789392E-006
 chl          15   7.1211137627313808E-005   8.4621606578279631E-004   8.4152429275187068E-002
 chl2c          16   3.7823443882273475E-002   3.7823443882273475E-002  0.71433214999999994        6.2664126587405497E-005   1.5980276383848941E-016
 chl          16   3.2006805876413837E-005   8.4621606578279631E-004   3.7823443882273475E-002
 chl2c          17   3.7542254757581245E-002   3.7542254757581245E-002  0.62580860000000005        6.2664126587405497E-005   1.5972288137150825E-016
 chl          17   3.1768859121575867E-005   8.4621606578279631E-004   3.7542254757581245E-002
 chl2c          18   2.5694475239060960E-002   2.5694475239060960E-002  0.47925950000000000        8.3194515115761193E-005   1.4755862300674901E-016
 chl          18   2.1743077749151642E-005   8.4621606578279631E-004   2.5694475239060960E-002
 chl2c          19   3.7570220750293731E-002   3.7570220750293731E-002  0.63367130000000005        6.2664126587405497E-005   7.8256384485397836E-007
 chl          19   3.1792524393904740E-005   8.4621606578279631E-004   3.7570220750293731E-002
 chl2c          20   3.7020645196759419E-002   3.7020645196759419E-002  0.50678202500000002        6.2664126587405497E-005   1.4058498647128828E-016
 chl          20   3.1327464731142532E-005   8.4621606578279631E-004   3.7020645196759419E-002
 chl2c          21   3.7838475073783531E-002   3.7838475073783531E-002  0.71973185000000006        6.2664126587405497E-005   1.5190031314345735E-008
 chl          21   3.2019525512157505E-005   8.4621606578279631E-004   3.7838475073783531E-002
 chl2c          22   9.4871737883943374E-002   3.7613353106285476E-002  0.64616892500000001        6.2664126587405497E-005   3.4840641533885451E-006
 chl          22   8.0281988786127235E-005   8.4621606578279631E-004   9.4871737883943374E-002
 chl2c          23   3.2286562315070731E-002   3.2286562315070731E-002  0.41564179999999995        3.4893808816083674E-005   9.6258416062162813E-017
 chl          23   2.7321407739910247E-005   8.4621606578279631E-004   3.2286562315070731E-002
 chl2c          24   3.7348402796863071E-002   3.7348402796863071E-002  0.57597492500000003        6.2664126587405497E-005   1.1415269708221024E-016
 chl          24   3.1604818478032654E-005   8.4621606578279631E-004   3.7348402796863071E-002
 chl2c          25   4.5426679235459781E-002   4.5426679235459781E-002  0.31406487500000002        1.8418691555737845E-005   7.6498229442439050E-017
 chl          25   3.8440785784207821E-005   8.4621606578279631E-004   4.5426679235459781E-002
 chl2c          26   4.7955660680174553E-002   4.7955660680174553E-002  0.49427735000000000        1.8418691555737845E-005   7.0327320912095970E-017
 chl          26   4.0580850512792045E-005   8.4621606578279631E-004   4.7955660680174553E-002
 chl2c          27   4.5333133499525620E-002   4.5333133499525620E-002  0.30964730000000001        1.8418691555737845E-005   8.0252851904054661E-017
 chl          27   3.8361625879574859E-005   8.4621606578279631E-004   4.5333133499525620E-002
 chl2c          28   3.1209236063453518E-002   3.1209236063453518E-002  0.28776342500000002        3.4893808816083674E-005   7.9815111358165527E-017
 chl          28   2.6409756957702202E-005   8.4621606578279631E-004   3.1209236063453518E-002
 chl2c          29   9.3662575907826173E-002   3.7743217595736761E-002  0.68676297499999994        6.2664126587405497E-005   3.3980811788416351E-006
 chl          29   7.9258776495803182E-005   8.4621606578279631E-004   9.3662575907826173E-002
 chl2c          30   2.5380056985171612E-002   2.5380056985171612E-002  0.38930277499999999        8.3194515115761193E-005   1.6176282045533298E-016
 chl          30   2.1477011971335101E-005   8.4621606578279631E-004   2.5380056985171612E-002
 chl2c          31   9.7867939137860016E-002   3.7576959810037038E-002  0.63559385000000002        6.2664126587405497E-005   3.6245004736391331E-006
 chl          31   8.2817422423510061E-005   8.4621606578279631E-004   9.7867939137860016E-002
 chl2c          32   7.4672968444953788E-002   2.0893126428578448E-002  0.24722667500000001        6.2664126587405497E-005   3.3521500201593182E-006
 chl          32   6.3189465577811690E-005   8.4621606578279631E-004   7.4672968444953788E-002
 chl2c          33   3.7458922634011876E-002   3.7458922634011876E-002  0.60343137499999999        6.2664126587405497E-005   1.0947403269006896E-006
 chl          33   3.1698342139815672E-005   8.4621606578279631E-004   3.7458922634011876E-002
 chl2c          34   5.6133765006393020E-002   2.5350269098008315E-002  0.38241020000000003        8.3194515115761193E-005   2.7367342707803405E-006
 chl          34   4.7501293781285904E-005   8.4621606578279631E-004   5.6133765006393020E-002
 chl2c          35   2.5740370148566064E-002   2.5740370148566064E-002  0.49574644999999995        8.3194515115761193E-005   1.1679963930715201E-016
 chl          35   2.1781914758912509E-005   8.4621606578279631E-004   2.5740370148566064E-002
 chl2c          36   3.7770393924465726E-002   3.7770393924465726E-002  0.69587337500000002        6.2664126587405497E-005   1.2163671430502428E-016
 chl          36   3.1961914149827817E-005   8.4621606578279631E-004   3.7770393924465726E-002
 chl2c          37   2.1353674699533250E-002   2.1353674699533250E-002  0.33194060000000003        6.2664126587405497E-005   1.0694122863381507E-016
 chl          37   1.8069822594244663E-005   8.4621606578279631E-004   2.1353674699533250E-002
 chl2c          38   2.1543295686358745E-002   2.1543295686358745E-002  0.38455722500000000        6.2664126587405497E-005   1.6511941236986163E-016
 chl          38   1.8230282919705983E-005   8.4621606578279631E-004   2.1543295686358745E-002
 chl2c          39   2.5670077108751441E-002   2.5670077108751441E-002  0.47091117500000002        8.3194515115761193E-005   1.3291243702537642E-016
 chl          39   2.1722431659308663E-005   8.4621606578279631E-004   2.5670077108751441E-002
 chl2c          40   3.7687445774703773E-002   3.7687445774703773E-002  0.66875547499999999        6.2664126587405497E-005   1.6011119129410071E-016
 chl          40   3.1891722092872296E-005   8.4621606578279631E-004   3.7687445774703773E-002
 chl2c          41   2.5582381488167241E-002   2.5582381488167241E-002  0.44304987499999998        8.3194515115761193E-005   9.6296808315647049E-017
 chl          41   2.1648222216271520E-005   8.4621606578279631E-004   2.5582381488167241E-002
 chl2c          42   3.7949995630725070E-002   3.7949995630725070E-002  0.76234377499999995        6.2664126587405497E-005   1.3506092226695602E-016
 chl          42   3.2113895999106475E-005   8.4621606578279631E-004   3.7949995630725070E-002
 chl2c          43   2.1185090152268007E-002   2.1185090152268007E-002  0.29539925000000000        6.2664126587405497E-005   1.6441192725103559E-016
 chl          43   1.7927163641906093E-005   8.4621606578279631E-004   2.1185090152268007E-002
 chl2c          44   3.7536352708156646E-002   3.7536352708156646E-002  0.62417262500000004        6.2664126587405497E-005   1.1538633306068383E-016
 chl          44   3.1763864712531729E-005   8.4621606578279631E-004   3.7536352708156646E-002
 chl2c          45  0.13243045453430258        4.6544927192009838E-002  0.37662252499999999        1.8418691555737845E-005   1.8810112051090764E-006
 chl          45   1.1206477822584500E-004   8.4621606578279631E-004  0.13243045453430258     
 chl2c          46   9.4976623101758278E-002   3.7083195475449568E-002  0.51876034999999998        6.2664126587405497E-005   3.6427403632588823E-006
 chl          46   8.0370744342505334E-005   8.4621606578279631E-004   9.4976623101758278E-002
 chl2c          47   3.7519784612651236E-002   3.7519784612651236E-002  0.61962282499999999        6.2664126587405497E-005   1.4734862200463464E-016
 chl          47   3.1749844523935630E-005   8.4621606578279631E-004   3.7519784612651236E-002
 chl2c          48   3.7823212136301673E-002   3.7823212136301673E-002  0.71424949999999998        6.2664126587405497E-005   1.4170901830765667E-016
 chl          48   3.2006609769249320E-005   8.4621606578279631E-004   3.7823212136301673E-002
 chl2c          49   3.7152990741888416E-002   3.7152990741888416E-002  0.53276120000000005        6.2664126587405497E-005   1.3187977047257322E-016
 chl          49   3.1439457657665469E-005   8.4621606578279631E-004   3.7152990741888416E-002
 chl2c          50   3.9093443255953715E-002   2.1533072915600981E-002  0.38132569999999999        6.2664126587405497E-005   1.3647969836066569E-006
 chl          50   3.3081499749956143E-005   8.4621606578279631E-004   3.9093443255953715E-002
 chl2c          51   2.0700971146093840E-002   2.0700971146093840E-002  0.22275920000000002        6.2664126587405497E-005   1.7549372346680378E-016
 chl          51   1.7517494361130715E-005   8.4621606578279631E-004   2.0700971146093840E-002
 chl2c          52   3.7581825176985564E-002   3.7581825176985564E-002  0.63698869999999996        6.2664126587405497E-005   1.5681357561068259E-016
 chl          52   3.1802344246205568E-005   8.4621606578279631E-004   3.7581825176985564E-002
 chl2c          53   3.7925801262726190E-002   3.7925801262726190E-002  0.75269794999999995        6.2664126587405497E-005   1.4043411500505706E-016
 chl          53   3.2093422336204365E-005   8.4621606578279631E-004   3.7925801262726190E-002
 chl2c          54   3.7082433371327092E-002   3.7082433371327092E-002  0.51861124999999997        6.2664126587405497E-005   1.1520099368971507E-016
 chl          54   3.1379750877137085E-005   8.4621606578279631E-004   3.7082433371327092E-002
 chl2c          55   9.5089156669764724E-002   3.7357235588660491E-002  0.57808280000000001        6.2664126587405497E-005   3.5658955968226309E-006
 chl          55   8.0465972055692255E-005   8.4621606578279631E-004   9.5089156669764724E-002
 chl2c          56   3.7507394187257688E-002   3.7507394187257688E-002  0.61626080000000005        6.2664126587405497E-005   1.5722792113438664E-016
 chl          56   3.1739359546905726E-005   8.4621606578279631E-004   3.7507394187257688E-002
 chl2c          57  0.10269142010951005        3.7727617852646313E-002  0.68163462500000005        6.2664126587405497E-005   3.7882517902143345E-006
 chl          57   8.6899129514717929E-005   8.4621606578279631E-004  0.10269142010951005     
 chl2c          58   3.7765358178394853E-002   3.7765358178394853E-002  0.69416802499999997        6.2664126587405497E-005   5.0077187486532470E-007
 chl          58   3.1957652820599444E-005   8.4621606578279631E-004   3.7765358178394853E-002
 chl2c          59   3.7173699120809672E-002   3.7173699120809672E-002  0.53705127500000005        6.2664126587405497E-005   1.5993576409370997E-016
 chl          59   3.1456981420604952E-005   8.4621606578279631E-004   3.7173699120809672E-002
 chl2c          60   3.7607757740906807E-002   3.7607757740906807E-002  0.64452155000000000        6.2664126587405497E-005   1.1433125581521728E-007
 chl          60   3.1824288798422662E-005   8.4621606578279631E-004   3.7607757740906807E-002
 chl2c          61   3.7805373434125003E-002   3.7805373434125003E-002  0.70794139999999994        6.2664126587405497E-005   1.3744283309370742E-016
 chl          61   3.1991514372874703E-005   8.4621606578279631E-004   3.7805373434125003E-002
 chl2c          62   3.7956103087269030E-002   3.7956103087269030E-002  0.76481592499999995        6.2664126587405497E-005   1.1217433136592027E-016
 chl          62   3.2119064226955048E-005   8.4621606578279631E-004   3.7956103087269030E-002
 chl2c          63   4.6749619447329527E-002   3.7855601011927406E-002  0.72597904999999996        6.2664126587405497E-005   1.5655778491941470E-006
 chl          63   3.9560279045562096E-005   8.4621606578279631E-004   4.6749619447329527E-002
 chl2c          64   2.5708982294816416E-002   2.5708982294816416E-002  0.48435739999999999        8.3194515115761193E-005   9.3691853638424203E-017
 chl          64   2.1755353852799114E-005   8.4621606578279631E-004   2.5708982294816416E-002
 chl2c          65   3.7953597170552002E-002   3.7953597170552002E-002  0.76379975000000000        6.2664126587405497E-005   1.2394154529214915E-016
 chl          65   3.2116943679969585E-005   8.4621606578279631E-004   3.7953597170552002E-002
 chl2c          66   3.1840477731474713E-002   3.1840477731474713E-002  0.35213202499999996        3.4893808816083674E-005   7.6106907340893333E-017
 chl          66   2.6943923798573268E-005   8.4621606578279631E-004   3.1840477731474713E-002
 chl2c          67   3.7937587124568600E-002   3.7937587124568600E-002  0.75736760000000003        6.2664126587405497E-005   1.3112993760386918E-016
 chl          67   3.2103395721844508E-005   8.4621606578279631E-004   3.7937587124568600E-002
 chl2c          68   3.7855407263856986E-002   3.7855407263856986E-002  0.72590779999999999        6.2664126587405497E-005   2.2334852174547164E-007
 chl          68   3.2033853803426549E-005   8.4621606578279631E-004   3.7855407263856986E-002
 chl2c          69   7.5461766018050755E-002   2.1732330561541505E-002  0.45524217500000003        6.2664126587405497E-005   2.8341699671406273E-006
 chl          69   6.3856958756816824E-005   8.4621606578279631E-004   7.5461766018050755E-002
 chl2c          70   3.2658010878182209E-002   3.2658010878182209E-002  0.48694062500000002        3.4893808816083674E-005   9.5913026214423889E-017
 chl          70   2.7635733481627112E-005   8.4621606578279631E-004   3.2658010878182209E-002
 chl2c          71   4.3481058864416305E-002   4.3481058864416305E-002  0.23986107500000001        1.8418691555737845E-005   8.3744258083726986E-017
 chl          71   3.6794370568316545E-005   8.4621606578279631E-004   4.3481058864416305E-002
 chl2c          72   3.7549776402781669E-002   3.7549776402781669E-002  0.62790522500000001        6.2664126587405497E-005   1.5772389735879677E-016
 chl          72   3.1775224058585589E-005   8.4621606578279631E-004   3.7549776402781669E-002
 chl2c          73   3.1852614277819484E-002   3.1852614277819484E-002  0.35362212500000001        3.4893808816083674E-005   9.2324569809202002E-017
 chl          73   2.6954193939073331E-005   8.4621606578279631E-004   3.1852614277819484E-002
 chl2c          74   3.7616827685877569E-002   3.7616827685877569E-002  0.64719590000000005        6.2664126587405497E-005   1.0639983876695298E-007
 chl          74   3.1831963931572685E-005   8.4621606578279631E-004   3.7616827685877569E-002
 chl2c          75   3.7826830779512356E-002   3.7826830779512356E-002  0.71554212500000003        6.2664126587405497E-005   1.2436251915377483E-016
 chl          75   3.2009671923270534E-005   8.4621606578279631E-004   3.7826830779512356E-002
 chl2c          76   9.0595788527941146E-002   3.7257729557919804E-002  0.55513977500000000        6.2664126587405497E-005   3.3921301506381728E-006
 chl          76   7.6663611744604552E-005   8.4621606578279631E-004   9.0595788527941146E-002
 chl2c          77   3.7138172437479272E-002   3.7138172437479272E-002  0.52973029999999999        6.2664126587405497E-005   1.0928588225513111E-016
 chl          77   3.1426918170406791E-005   8.4621606578279631E-004   3.7138172437479272E-002
 chl2c          78  0.16738638940496242        4.7515248899399322E-002  0.45117492500000000        1.8418691555737845E-005   2.4507500990420601E-006
 chl          78   1.4164505190785443E-004   8.4621606578279631E-004  0.16738638940496242     
 prod   4.0066103780341752E-007   124.74701450872583        10.000000000000000     
 dcdom   5.1214125005627099E-013  -4.2412684367660525E-009
 chl2c           1   3.7477407714772232E-002   3.7477407714772232E-002  0.60826437499999997        3.2269899117598145E-006   1.5009557229506737E-016
 chl           1   3.2136638987323779E-005   8.5749364608952614E-004   3.7477407714772232E-002
 chl2c           2  0.38736333443201687        3.2640259920490348E-002  0.48302390000000001        1.8076830763760003E-006   1.7678543560444388E-006
 chl           2   3.3216159800350661E-004   8.5749364608952614E-004  0.38736333443201687     
 chl2c           3   3.7922212503796585E-002   3.7922212503796585E-002  0.75128689999999998        3.2269899117598145E-006   1.6175710938176561E-016
 chl           3   3.2518056267662353E-005   8.5749364608952614E-004   3.7922212503796585E-002
 chl2c           4  0.51426927167793679        3.7976509103863923E-002  0.77318742499999993        3.2269899117598145E-006   2.4778811318588036E-006
 chl           4   4.4098263284291910E-004   8.5749364608952614E-004  0.51426927167793679     
 chl2c           5  0.31294568157467617        2.5710500362372445E-002  0.48489679999999996        6.6654669014677562E-006   2.9411275320293645E-006
 chl           5   2.6834893352144093E-004   8.5749364608952614E-004  0.31294568157467617     
 chl2c           6   3.1261039902252048E-002   3.1261039902252048E-002  0.29222855000000003        1.8076830763760003E-006   1.0196030655476592E-016
 chl           6   2.6806143086332273E-005   8.5749364608952614E-004   3.1261039902252048E-002
 chl2c           7  0.21245731967994508        4.3064391842467263E-002  0.22770740000000000        8.5472450807466787E-007   1.3557289590800930E-006
 chl           7   1.8218080169076414E-004   8.5749364608952614E-004  0.21245731967994508     
 chl2c           8   4.7969800906495587E-002   4.7969800906495587E-002  0.49578364999999996        8.5472450807466787E-007   7.3323101293059415E-017
 chl           8   4.1133799481499558E-005   8.5749364608952614E-004   4.7969800906495587E-002
 chl2c           9   2.4803669054600401E-002   2.4803669054600401E-002  0.28700202499999999        6.6654669014677562E-006   2.4526541388694159E-008
 chl           9   2.1268988614027248E-005   8.5749364608952614E-004   2.4803669054600401E-002
 chl2c          10  0.28629981788121889        2.5387016219684602E-002  0.39094662499999999        6.6654669014677562E-006   3.5646191709514831E-006
 chl          10   2.4550027470973370E-004   8.5749364608952614E-004  0.28629981788121889     
 chl2c          11   2.1820572217820047E-002   2.1820572217820047E-002  0.49737575000000001        3.2269899117598145E-006   1.4824296828316570E-016
 chl          11   1.8711002030818331E-005   8.5749364608952614E-004   2.1820572217820047E-002
 chl2c          12   4.5290941298723353E-002   4.5290941298723353E-002  0.30768942500000002        8.5472450807466787E-007   7.2699197694087824E-017
 chl          12   3.8836694389068989E-005   8.5749364608952614E-004   4.5290941298723353E-002
 chl2c          13   3.7935816987997487E-002   3.7935816987997487E-002  0.75666275000000005        3.2269899117598145E-006   1.3472639291955385E-016
 chl          13   3.2529722026422950E-005   8.5749364608952614E-004   3.7935816987997487E-002
 chl2c          14   4.6856526101924839E-002   4.6856526101924839E-002  0.39804095000000000        8.5472450807466787E-007   8.0764800711553045E-017
 chl          14   4.0179173410228583E-005   8.5749364608952614E-004   4.6856526101924839E-002
 chl2c          15  0.23254532929477578        2.0954299823745293E-002  0.25607262500000000        3.2269899117598145E-006   4.0838179676351030E-006
 chl          15   1.9940614229806678E-004   8.5749364608952614E-004  0.23254532929477578     
 chl2c          16   3.7823443882273475E-002   3.7823443882273475E-002  0.71433214999999994        3.2269899117598145E-006   1.6833123769437677E-016
 chl          16   3.2433362802273263E-005   8.5749364608952614E-004   3.7823443882273475E-002
 chl2c          17   3.7542254757581245E-002   3.7542254757581245E-002  0.62580860000000005        3.2269899117598145E-006   1.6824778964194989E-016
 chl          17   3.2192244914500199E-005   8.5749364608952614E-004   3.7542254757581245E-002
 chl2c          18   2.5694475239060960E-002   2.5694475239060960E-002  0.47925950000000000        6.6654669014677562E-006   1.5466234008486872E-016
 chl          18   2.2032849257099430E-005   8.5749364608952614E-004   2.5694475239060960E-002
 chl2c          19  0.30385325446021955        3.7570220750293731E-002  0.63367130000000005        3.2269899117598145E-006   9.4193542009889436E-007
 chl          19   2.6055223504326225E-004   8.5749364608952614E-004  0.30385325446021955     
 chl2c          20   3.7020645196759419E-002   3.7020645196759419E-002  0.50678202500000002        3.2269899117598145E-006   1.4823638685080313E-016
 chl          20   3.1744968030355941E-005   8.5749364608952614E-004   3.7020645196759419E-002
 chl2c          21   5.4598721921732950E-002   3.7838475073783531E-002  0.71973185000000006        3.2269899117598145E-006   9.5326189080007543E-008
 chl          21   4.6818057132494927E-005   8.5749364608952614E-004   5.4598721921732950E-002
 chl2c          22  0.50429511185604126        3.7613353106285476E-002  0.64616892500000001        3.2269899117598145E-006   3.7059213457300604E-006
 chl          22   4.3242985417056226E-004   8.5749364608952614E-004  0.50429511185604126     
 chl2c          23   3.2286562315070731E-002   3.2286562315070731E-002  0.41564179999999995        1.8076830763760003E-006   9.6132331482697791E-017
 chl          23   2.7685522039246694E-005   8.5749364608952614E-004   3.2286562315070731E-002
 chl2c          24   3.7348402796863071E-002   3.7348402796863071E-002  0.57597492500000003        3.2269899117598145E-006   1.2053363113355148E-016
 chl          24   3.2026018089902373E-005   8.5749364608952614E-004   3.7348402796863071E-002
 chl2c          25   4.5426679235459781E-002   4.5426679235459781E-002  0.31406487500000002        8.5472450807466787E-007   7.6393681068343327E-017
 chl          25   3.8953088807353776E-005   8.5749364608952614E-004   4.5426679235459781E-002
 chl2c          26   4.7955660680174553E-002   4.7955660680174553E-002  0.49427735000000000        8.5472450807466787E-007   7.0229958317723679E-017
 chl          26   4.1121674327275003E-005   8.5749364608952614E-004   4.7955660680174553E-002
 chl2c          27   4.5333133499525620E-002   4.5333133499525620E-002  0.30964730000000001        8.5472450807466787E-007   8.0151548606370811E-017
 chl          27   3.8872873933171466E-005   8.5749364608952614E-004   4.5333133499525620E-002
 chl2c          28   3.1209236063453518E-002   3.1209236063453518E-002  0.28776342500000002        1.8076830763760003E-006   7.9714267569451105E-017
 chl          28   2.6761721623719486E-005   8.5749364608952614E-004   3.1209236063453518E-002
 chl2c          29  0.52353729025510620        3.7743217595736761E-002  0.68676297499999994        3.2269899117598145E-006   3.5541324384334235E-006
 chl          29   4.4892989988468157E-004   8.5749364608952614E-004  0.52353729025510620     
 chl2c          30   2.5380056985171612E-002   2.5380056985171612E-002  0.38930277499999999        6.6654669014677562E-006   1.6934465722959316E-016
 chl          30   2.1763237602174753E-005   8.5749364608952614E-004   2.5380056985171612E-002
 chl2c          31  0.49992683416893358        3.7576959810037038E-002  0.63559385000000002        3.2269899117598145E-006   3.7790224747801217E-006
 chl          31   4.2868408380951275E-004   8.5749364608952614E-004  0.49992683416893358     
 chl2c          32  0.22269485977749273        2.0893126428578448E-002  0.24722667500000001        3.2269899117598145E-006   3.6211244264521634E-006
 chl          32   1.9095942727599802E-004   8.5749364608952614E-004  0.22269485977749273     
 chl2c          33  0.34251080768958775        3.7458922634011876E-002  0.60343137499999999        3.2269899117598145E-006   1.2780900830906230E-006
 chl          33   2.9370084131081310E-004   8.5749364608952614E-004  0.34251080768958775     
 chl2c          34  0.26405581224166769        2.5350269098008315E-002  0.38241020000000003        6.6654669014677562E-006   2.8434226356024295E-006
 chl          34   2.2642618121023896E-004   8.5749364608952614E-004  0.26405581224166769     
 chl2c          35   2.5740370148566064E-002   2.5740370148566064E-002  0.49574644999999995        6.6654669014677562E-006   1.2275200028937093E-016
 chl          35   2.2072203850387913E-005   8.5749364608952614E-004   2.5740370148566064E-002
 chl2c          36   3.7770393924465726E-002   3.7770393924465726E-002  0.69587337500000002        3.2269899117598145E-006   1.2838499079613843E-016
 chl          36   3.2387872800527801E-005   8.5749364608952614E-004   3.7770393924465726E-002
 chl2c          37   2.1353674699533250E-002   2.1353674699533250E-002  0.33194060000000003        3.2269899117598145E-006   1.1248993978648214E-016
 chl          37   1.8310640375512433E-005   8.5749364608952614E-004   2.1353674699533250E-002
 chl2c          38   2.1543295686358745E-002   2.1543295686358745E-002  0.38455722500000000        3.2269899117598145E-006   1.7280942527322988E-016
 chl          38   1.8473239166880522E-005   8.5749364608952614E-004   2.1543295686358745E-002
 chl2c          39   2.5670077108751441E-002   2.5670077108751441E-002  0.47091117500000002        6.6654669014677562E-006   1.3948804245848351E-016
 chl          39   2.2011928015382554E-005   8.5749364608952614E-004   2.5670077108751441E-002
 chl2c          40   3.7687445774703773E-002   3.7687445774703773E-002  0.66875547499999999        3.2269899117598145E-006   1.6865342569001598E-016
 chl          40   3.2316745289152042E-005   8.5749364608952614E-004   3.7687445774703773E-002
 chl2c          41   2.5582381488167241E-002   2.5582381488167241E-002  0.44304987499999998        6.6654669014677562E-006   1.0139027088828874E-016
 chl          41   2.1936729577941726E-005   8.5749364608952614E-004   2.5582381488167241E-002
 chl2c          42   3.7949995630725070E-002   3.7949995630725070E-002  0.76234377499999995        3.2269899117598145E-006   1.4245299319180467E-016
 chl          42   3.2541880122472026E-005   8.5749364608952614E-004   3.7949995630725070E-002
 chl2c          43   2.1185090152268007E-002   2.1185090152268007E-002  0.29539925000000000        3.2269899117598145E-006   1.7207929073898067E-016
 chl          43   1.8166080197403607E-005   8.5749364608952614E-004   2.1185090152268007E-002
 chl2c          44   3.7536352708156646E-002   3.7536352708156646E-002  0.62417262500000004        3.2269899117598145E-006   1.2182823603347114E-016
 chl          44   3.2187183944619704E-005   8.5749364608952614E-004   3.7536352708156646E-002
 chl2c          45  0.34546629667839923        4.6544927192009838E-002  0.37662252499999999        8.5472450807466787E-007   1.7846919249839253E-006
 chl          45   2.9623515433980650E-004   8.5749364608952614E-004  0.34546629667839923     
 chl2c          46  0.42525844157644921        3.7083195475449568E-002  0.51876034999999998        3.2269899117598145E-006   3.8068595546675572E-006
 chl          46   3.6465641159773917E-004   8.5749364608952614E-004  0.42525844157644921     
 chl2c          47   3.7519784612651236E-002   3.7519784612651236E-002  0.61962282499999999        3.2269899117598145E-006   1.5531313803427319E-016
 chl          47   3.2172976907996009E-005   8.5749364608952614E-004   3.7519784612651236E-002
 chl2c          48   3.7823212136301673E-002   3.7823212136301673E-002  0.71424949999999998        3.2269899117598145E-006   1.4941278999105867E-016
 chl          48   3.2433164081574939E-005   8.5749364608952614E-004   3.7823212136301673E-002
 chl2c          49   3.7152990741888416E-002   3.7152990741888416E-002  0.53276120000000005        3.2269899117598145E-006   1.3912102598076534E-016
 chl          49   3.1858453494392306E-005   8.5749364608952614E-004   3.7152990741888416E-002
 chl2c          50  0.27571632100489085        2.1533072915600981E-002  0.38132569999999999        3.2269899117598145E-006   1.6062889590736487E-006
 chl          50   2.3642499338487406E-004   8.5749364608952614E-004  0.27571632100489085     
 chl2c          51   2.0700971146093840E-002   2.0700971146093840E-002  0.22275920000000002        3.2269899117598145E-006   1.8350664726874314E-016
 chl          51   1.7750951225658084E-005   8.5749364608952614E-004   2.0700971146093840E-002
 chl2c          52   3.7581825176985564E-002   3.7581825176985564E-002  0.63698869999999996        3.2269899117598145E-006   1.6520817222532498E-016
 chl          52   3.2226176297712505E-005   8.5749364608952614E-004   3.7581825176985564E-002
 chl2c          53   3.7925801262726190E-002   3.7925801262726190E-002  0.75269794999999995        3.2269899117598145E-006   1.4807847572792469E-016
 chl          53   3.2521133605641838E-005   8.5749364608952614E-004   3.7925801262726190E-002
 chl2c          54   3.7082433371327092E-002   3.7082433371327092E-002  0.51861124999999997        3.2269899117598145E-006   1.2163374733896031E-016
 chl          54   3.1797950997451185E-005   8.5749364608952614E-004   3.7082433371327092E-002
 chl2c          55  0.46359590288832142        3.7357235588660491E-002  0.57808280000000001        3.2269899117598145E-006   3.7769519859039847E-006
 chl          55   3.9753054107987264E-004   8.5749364608952614E-004  0.46359590288832142     
 chl2c          56   3.7507394187257688E-002   3.7507394187257688E-002  0.61626080000000005        3.2269899117598145E-006   1.6564113080196658E-016
 chl          56   3.2162352196948697E-005   8.5749364608952614E-004   3.7507394187257688E-002
 chl2c          57  0.53246344013443658        3.7727617852646313E-002  0.68163462500000005        3.2269899117598145E-006   3.9257632901334443E-006
 chl          57   4.5658401669025015E-004   8.5749364608952614E-004  0.53246344013443658     
 chl2c          58  0.25724285071839120        3.7765358178394853E-002  0.69416802499999997        3.2269899117598145E-006   6.5942963834500968E-007
 chl          58   2.2058410999297695E-004   8.5749364608952614E-004  0.25724285071839120     
 chl2c          59   3.7173699120809672E-002   3.7173699120809672E-002  0.53705127500000005        3.2269899117598145E-006   1.6847017299294269E-016
 chl          59   3.1876210797738095E-005   8.5749364608952614E-004   3.7173699120809672E-002
 chl2c          60  0.10352771563256809        3.7607757740906807E-002  0.64452155000000000        3.2269899117598145E-006   1.9900746639607562E-007
 chl          60   8.8774358349090447E-005   8.5749364608952614E-004  0.10352771563256809     
 chl2c          61   3.7805373434125003E-002   3.7805373434125003E-002  0.70794139999999994        3.2269899117598145E-006   1.4494712175669608E-016
 chl          61   3.2417867507803960E-005   8.5749364608952614E-004   3.7805373434125003E-002
 chl2c          62   3.7956103087269030E-002   3.7956103087269030E-002  0.76481592499999995        3.2269899117598145E-006   1.1845714521661324E-016
 chl          62   3.2547117227652239E-005   8.5749364608952614E-004   3.7956103087269030E-002
 chl2c          63  0.43565512777117155        3.7855601011927406E-002  0.72597904999999996        3.2269899117598145E-006   1.7577281496403460E-006
 chl          63   3.7357150395010024E-004   8.5749364608952614E-004  0.43565512777117155     
 chl2c          64   2.5708982294816416E-002   2.5708982294816416E-002  0.48435739999999999        6.6654669014677562E-006   9.8670796354855479E-017
 chl          64   2.2045288965233201E-005   8.5749364608952614E-004   2.5708982294816416E-002
 chl2c          65   3.7953597170552002E-002   3.7953597170552002E-002  0.76379975000000000        3.2269899117598145E-006   1.3080173224362470E-016
 chl          65   3.2544968419989761E-005   8.5749364608952614E-004   3.7953597170552002E-002
 chl2c          66   3.1840477731474713E-002   3.1840477731474713E-002  0.35213202499999996        1.8076830763760003E-006   7.6002808141386529E-017
 chl          66   2.7303007343194615E-005   8.5749364608952614E-004   3.1840477731474713E-002
 chl2c          67   3.7937587124568600E-002   3.7937587124568600E-002  0.75736760000000003        3.2269899117598145E-006   1.3833548680311936E-016
 chl          67   3.2531239907285394E-005   8.5749364608952614E-004   3.7937587124568600E-002
 chl2c          68  0.16740187441123219        3.7855407263856986E-002  0.72590779999999999        3.2269899117598145E-006   3.5106020842633136E-007
 chl          68   1.4354604365110843E-004   8.5749364608952614E-004  0.16740187441123219     
 chl2c          69  0.36464654134059654        2.1732330561541505E-002  0.45524217500000003        3.2269899117598145E-006   2.9564799176768758E-006
 chl          69   3.1268209226808326E-004   8.5749364608952614E-004  0.36464654134059654     
 chl2c          70   3.2658010878182209E-002   3.2658010878182209E-002  0.48694062500000002        1.8076830763760003E-006   9.5795946762819186E-017
 chl          70   2.8004036821963869E-005   8.5749364608952614E-004   3.2658010878182209E-002
 chl2c          71   4.3481058864416305E-002   4.3481058864416305E-002  0.23986107500000001        8.5472450807466787E-007   8.3631551603557505E-017
 chl          71   3.7284731701481649E-005   8.5749364608952614E-004   4.3481058864416305E-002
 chl2c          72   3.7549776402781669E-002   3.7549776402781669E-002  0.62790522500000001        3.2269899117598145E-006   1.6615936347393106E-016
 chl          72   3.2198694677467703E-005   8.5749364608952614E-004   3.7549776402781669E-002
 chl2c          73   3.1852614277819484E-002   3.1852614277819484E-002  0.35362212500000001        1.8076830763760003E-006   9.2202593568418716E-017
 chl          73   2.7313414354570729E-005   8.5749364608952614E-004   3.1852614277819484E-002
 chl2c          74  0.10578518827491262        3.7616827685877569E-002  0.64719590000000005        3.2269899117598145E-006   2.0403345735825039E-007
 chl          74   9.0710126796121810E-005   8.5749364608952614E-004  0.10578518827491262     
 chl2c          75   3.7826830779512356E-002   3.7826830779512356E-002  0.71554212500000003        3.2269899117598145E-006   1.3124308457305886E-016
 chl          75   3.2436267045135563E-005   8.5749364608952614E-004   3.7826830779512356E-002
 chl2c          76  0.44348173658013390        3.7257729557919804E-002  0.55513977500000000        3.2269899117598145E-006   3.5575884179146612E-006
 chl          76   3.8028277127421378E-004   8.5749364608952614E-004  0.44348173658013390     
 chl2c          77   3.7138172437479272E-002   3.7138172437479272E-002  0.52973029999999999        3.2269899117598145E-006   1.1542467395288374E-016
 chl          77   3.1845746892515647E-005   8.5749364608952614E-004   3.7138172437479272E-002
 chl2c          78  0.41782616701020847        4.7515248899399322E-002  0.45117492500000000        8.5472450807466787E-007   2.4157783612605998E-006
 chl          78   3.5828328338119496E-004   8.5749364608952614E-004  0.41782616701020847     
 prod   4.0002535197791482E-007   8.3318609855601693        10.000000000000000     
 dcdom   6.1338396547915724E-013  -1.9396083785827947E-009
 chl2c           1   3.7477407714772232E-002   3.7477407714772232E-002  0.60826437499999997        2.7338803440427258E-007   1.5231775275024612E-016
 chl           1   3.2390250143937492E-005   8.6426068714380252E-004   3.7477407714772232E-002
 chl2c           2  0.47170580287078678        3.2640259920490348E-002  0.48302390000000001        1.7444643986466108E-007   1.7558949811365706E-006
 chl           2   4.0767678131882522E-004   8.6426068714380252E-004  0.47170580287078678     
 chl2c           3   3.7922212503796585E-002   3.7922212503796585E-002  0.75128689999999998        2.7338803440427258E-007   1.6412333783851188E-016
 chl           3   3.2774677436544539E-005   8.6426068714380252E-004   3.7922212503796585E-002
 chl2c           4  0.74299666526269159        3.7976509103863923E-002  0.77318742499999993        2.7338803440427258E-007   2.6010404822012913E-006
 chl           4   6.4214280846548765E-004   8.6426068714380252E-004  0.74299666526269159     
 chl2c           5  0.45977275758238273        2.5710500362372445E-002  0.48489679999999996        6.6867291294614040E-007   2.9667897522062091E-006
 chl           5   3.9736351939815103E-004   8.6426068714380252E-004  0.45977275758238273     
 chl2c           6   3.1261039902252048E-002   3.1261039902252048E-002  0.29222855000000003        1.7444643986466108E-007   1.0181360810576272E-016
 chl           6   2.7017687826750186E-005   8.6426068714380252E-004   3.1261039902252048E-002
 chl2c           7  0.22619772084290662        4.3064391842467263E-002  0.22770740000000000        8.1233506133661262E-008   1.3857532718291950E-006
 chl           7   1.9549379764605251E-004   8.6426068714380252E-004  0.22619772084290662     
 chl2c           8   4.7969800906495587E-002   4.7969800906495587E-002  0.49578364999999996        8.1233506133661262E-008   7.3209558353346282E-017
 chl           8   4.1458413093599280E-005   8.6426068714380252E-004   4.7969800906495587E-002
 chl2c           9  0.14190867161736284        2.4803669054600401E-002  0.28700202499999999        6.6867291294614040E-007   9.3849100122202582E-008
 chl           9   1.2264608604368625E-004   8.6426068714380252E-004  0.14190867161736284     
 chl2c          10  0.37722689078641830        2.5387016219684602E-002  0.39094662499999999        6.6867291294614040E-007   3.5938351285194753E-006
 chl          10   3.2602237184019002E-004   8.6426068714380252E-004  0.37722689078641830     
 chl2c          11   2.1820572217820047E-002   2.1820572217820047E-002  0.49737575000000001        2.7338803440427258E-007   1.5019828975029857E-016
 chl          11   1.8858662738844121E-005   8.6426068714380252E-004   2.1820572217820047E-002
 chl2c          12   4.5290941298723353E-002   4.5290941298723353E-002  0.30768942500000002        8.1233506133661262E-008   7.2586474121203990E-017
 chl          12   3.9143180048224269E-005   8.6426068714380252E-004   4.5290941298723353E-002
 chl2c          13   3.7935816987997487E-002   3.7935816987997487E-002  0.75666275000000005        2.7338803440427258E-007   1.3675264961594479E-016
 chl          13   3.2786435257408241E-005   8.6426068714380252E-004   3.7935816987997487E-002
 chl2c          14   4.6856526101924839E-002   4.6856526101924839E-002  0.39804095000000000        8.1233506133661262E-008   8.0643699540474226E-017
 chl          14   4.0496253446021081E-005   8.6426068714380252E-004   4.6856526101924839E-002
 chl2c          15  0.25391377774385082        2.0954299823745293E-002  0.25607262500000000        2.7338803440427258E-007   4.1169634491712231E-006
 chl          15   2.1944769602817927E-004   8.6426068714380252E-004  0.25391377774385082     
 chl2c          16   3.7823443882273475E-002   3.7823443882273475E-002  0.71433214999999994        2.7338803440427258E-007   1.7077693478674770E-016
 chl          16   3.2689315599838728E-005   8.6426068714380252E-004   3.7823443882273475E-002
 chl2c          17   3.7542254757581245E-002   3.7542254757581245E-002  0.62580860000000005        2.7338803440427258E-007   1.7069248581823670E-016
 chl          17   3.2446294893714856E-005   8.6426068714380252E-004   3.7542254757581245E-002
 chl2c          18   2.5694475239060960E-002   2.5694475239060960E-002  0.47925950000000000        6.6867291294614040E-007   1.5667750646934615E-016
 chl          18   2.2206724825910244E-005   8.6426068714380252E-004   2.5694475239060960E-002
 chl2c          19  0.58444513531095876        3.7570220750293731E-002  0.63367130000000005        2.7338803440427258E-007   1.0283981632375923E-006
 chl          19   5.0511295424170188E-004   8.6426068714380252E-004  0.58444513531095876     
 chl2c          20   3.7020645196759419E-002   3.7020645196759419E-002  0.50678202500000002        2.7338803440427258E-007   1.5043523552041199E-016
 chl          20   3.1995488256258206E-005   8.6426068714380252E-004   3.7020645196759419E-002
 chl2c          21  0.43453615320028827        3.7838475073783531E-002  0.71973185000000006        2.7338803440427258E-007   1.4990053251979305E-007
 chl          21   3.7555251435370576E-004   8.6426068714380252E-004  0.43453615320028827     
 chl2c          22  0.63140451690834865        3.7613353106285476E-002  0.64616892500000001        2.7338803440427258E-007   3.7773499277074557E-006
 chl          22   5.4569810164891005E-004   8.6426068714380252E-004  0.63140451690834865     
 chl2c          23   3.2286562315070731E-002   3.2286562315070731E-002  0.41564179999999995        1.7444643986466108E-007   9.5990563424771931E-017
 chl          23   2.7904006531934230E-005   8.6426068714380252E-004   3.2286562315070731E-002
 chl2c          24   3.7348402796863071E-002   3.7348402796863071E-002  0.57597492500000003        2.7338803440427258E-007   1.2237275396045342E-016
 chl          24   3.2278756264940393E-005   8.6426068714380252E-004   3.7348402796863071E-002
 chl2c          25   4.5426679235459781E-002   4.5426679235459781E-002  0.31406487500000002        8.1233506133661262E-008   7.6276142280961376E-017
 chl          25   3.9260493010699573E-005   8.6426068714380252E-004   4.5426679235459781E-002
 chl2c          26   4.7955660680174553E-002   4.7955660680174553E-002  0.49427735000000000        8.1233506133661262E-008   7.0120502293611852E-017
 chl          26   4.1446192251882690E-005   8.6426068714380252E-004   4.7955660680174553E-002
 chl2c          27   4.5333133499525620E-002   4.5333133499525620E-002  0.30964730000000001        8.1233506133661262E-008   8.0031225696500225E-017
 chl          27   3.9179645108681744E-005   8.6426068714380252E-004   4.5333133499525620E-002
 chl2c          28   3.1209236063453518E-002   3.1209236063453518E-002  0.28776342500000002        1.7444643986466108E-007   7.9594500900634810E-017
 chl          28   2.6972915805433480E-005   8.6426068714380252E-004   3.1209236063453518E-002
 chl2c          29  0.66925626157049090        3.7743217595736761E-002  0.68676297499999994        2.7338803440427258E-007   3.5887582223541975E-006
 chl          29   5.7841187650020491E-004   8.6426068714380252E-004  0.66925626157049090     
 chl2c          30   2.5380056985171612E-002   2.5380056985171612E-002  0.38930277499999999        6.6867291294614040E-007   1.7148960261410964E-016
 chl          30   2.1934985489753283E-005   8.6426068714380252E-004   2.5380056985171612E-002
 chl2c          31  0.62141491651512526        3.7576959810037038E-002  0.63559385000000002        2.7338803440427258E-007   3.8077401373202668E-006
 chl          31   5.3706448274877083E-004   8.6426068714380252E-004  0.62141491651512526     
 chl2c          32  0.24500491124874627        2.0893126428578448E-002  0.24722667500000001        2.7338803440427258E-007   3.7266769576924071E-006
 chl          32   2.1174811294944780E-004   8.6426068714380252E-004  0.24500491124874627     
 chl2c          33  0.56922167513384558        3.7458922634011876E-002  0.60343137499999999        2.7338803440427258E-007   1.3724911703451252E-006
 chl          33   4.9195591608832366E-004   8.6426068714380252E-004  0.56922167513384558     
 chl2c          34  0.36604697482213056        2.5350269098008315E-002  0.38241020000000003        6.6867291294614040E-007   2.8600993416174506E-006
 chl          34   3.1636000998668472E-004   8.6426068714380252E-004  0.36604697482213056     
 chl2c          35   2.5740370148566064E-002   2.5740370148566064E-002  0.49574644999999995        6.6867291294614040E-007   1.2445057252746663E-016
 chl          35   2.2246389991935528E-005   8.6426068714380252E-004   2.5740370148566064E-002
 chl2c          36   3.7770393924465726E-002   3.7770393924465726E-002  0.69587337500000002        2.7338803440427258E-007   1.3032837593673588E-016
 chl          36   3.2643466606850853E-005   8.6426068714380252E-004   3.7770393924465726E-002
 chl2c          37   2.1353674699533250E-002   2.1353674699533250E-002  0.33194060000000003        2.7338803440427258E-007   1.1407633919030776E-016
 chl          37   1.8455141568863839E-005   8.6426068714380252E-004   2.1353674699533250E-002
 chl2c          38   2.1543295686358745E-002   2.1543295686358745E-002  0.38455722500000000        2.7338803440427258E-007   1.7498357517743336E-016
 chl          38   1.8619023533234527E-005   8.6426068714380252E-004   2.1543295686358745E-002
 chl2c          39   2.5670077108751441E-002   2.5670077108751441E-002  0.47091117500000002        6.6867291294614040E-007   1.4135865262193585E-016
 chl          39   2.2185638481043916E-005   8.6426068714380252E-004   2.5670077108751441E-002
 chl2c          40   3.7687445774703773E-002   3.7687445774703773E-002  0.66875547499999999        2.7338803440427258E-007   1.7110298537904186E-016
 chl          40   3.2571777781940277E-005   8.6426068714380252E-004   3.7687445774703773E-002
 chl2c          41   2.5582381488167241E-002   2.5582381488167241E-002  0.44304987499999998        6.6867291294614040E-007   1.0284950934507712E-016
 chl          41   2.2109846603738314E-005   8.6426068714380252E-004   2.5582381488167241E-002
 chl2c          42   3.7949995630725070E-002   3.7949995630725070E-002  0.76234377499999995        2.7338803440427258E-007   1.4457861572820199E-016
 chl          42   3.2798689300914755E-005   8.6426068714380252E-004   3.7949995630725070E-002
 chl2c          43   2.1185090152268007E-002   2.1185090152268007E-002  0.29539925000000000        2.7338803440427258E-007   1.7424733103081005E-016
 chl          43   1.8309440572202551E-005   8.6426068714380252E-004   2.1185090152268007E-002
 chl2c          44   3.7536352708156646E-002   3.7536352708156646E-002  0.62417262500000004        2.7338803440427258E-007   1.2368467734050403E-016
 chl          44   3.2441193984423593E-005   8.6426068714380252E-004   3.7536352708156646E-002
 chl2c          45  0.37330432380556644        4.6544927192009838E-002  0.37662252499999999        8.1233506133661262E-008   1.7209640497879116E-006
 chl          45   3.2263225140595139E-004   8.6426068714380252E-004  0.37330432380556644     
 chl2c          46  0.50935976184643206        3.7083195475449568E-002  0.51876034999999998        2.7338803440427258E-007   3.8422523855294295E-006
 chl          46   4.4021961777680096E-004   8.6426068714380252E-004  0.50935976184643206     
 chl2c          47   3.7519784612651236E-002   3.7519784612651236E-002  0.61962282499999999        2.7338803440427258E-007   1.5760025704637097E-016
 chl          47   3.2426874830817425E-005   8.6426068714380252E-004   3.7519784612651236E-002
 chl2c          48   3.7823212136301673E-002   3.7823212136301673E-002  0.71424949999999998        2.7338803440427258E-007   1.5162641363923470E-016
 chl          48   3.2689115310905896E-005   8.6426068714380252E-004   3.7823212136301673E-002
 chl2c          49   3.7152990741888416E-002   3.7152990741888416E-002  0.53276120000000005        2.7338803440427258E-007   1.4120401464051781E-016
 chl          49   3.2109869308031816E-005   8.6426068714380252E-004   3.7152990741888416E-002
 chl2c          50  0.37018418958604626        2.1533072915600981E-002  0.38132569999999999        2.7338803440427258E-007   1.7318863079452774E-006
 chl          50   3.1993564206140803E-004   8.6426068714380252E-004  0.37018418958604626     
 chl2c          51   2.0700971146093840E-002   2.0700971146093840E-002  0.22275920000000002        2.7338803440427258E-007   1.8576759500975547E-016
 chl          51   1.7891035547267090E-005   8.6426068714380252E-004   2.0700971146093840E-002
 chl2c          52   3.7581825176985564E-002   3.7581825176985564E-002  0.63698869999999996        2.7338803440427258E-007   1.6761627299640071E-016
 chl          52   3.2480494051579799E-005   8.6426068714380252E-004   3.7581825176985564E-002
 chl2c          53   3.7925801262726190E-002   3.7925801262726190E-002  0.75269794999999995        2.7338803440427258E-007   1.5027533803729358E-016
 chl          53   3.2777779059803032E-005   8.6426068714380252E-004   3.7925801262726190E-002
 chl2c          54   3.7082433371327092E-002   3.7082433371327092E-002  0.51861124999999997        2.7338803440427258E-007   1.2348759008851900E-016
 chl          54   3.2048889346467423E-005   8.6426068714380252E-004   3.7082433371327092E-002
 chl2c          55  0.56642832906884211        3.7357235588660491E-002  0.57808280000000001        2.7338803440427258E-007   3.8405370352676053E-006
 chl          55   4.8954173689875341E-004   8.6426068714380252E-004  0.56642832906884211     
 chl2c          56   3.7507394187257688E-002   3.7507394187257688E-002  0.61626080000000005        2.7338803440427258E-007   1.6805446044046724E-016
 chl          56   3.2416166273252792E-005   8.6426068714380252E-004   3.7507394187257688E-002
 chl2c          57  0.66588724988320436        3.7727617852646313E-002  0.68163462500000005        2.7338803440427258E-007   3.9399769078237190E-006
 chl          57   5.7550017214435514E-004   8.6426068714380252E-004  0.66588724988320436     
 chl2c          58  0.61654867922563961        3.7765358178394853E-002  0.69416802499999997        2.7338803440427258E-007   7.5372254499430489E-007
 chl          58   5.3285878516515521E-004   8.6426068714380252E-004  0.61654867922563961     
 chl2c          59   3.7173699120809672E-002   3.7173699120809672E-002  0.53705127500000005        2.7338803440427258E-007   1.7091753609737055E-016
 chl          59   3.2127766745827934E-005   8.6426068714380252E-004   3.7173699120809672E-002
 chl2c          60  0.47842998514906715        3.7607757740906807E-002  0.64452155000000000        2.7338803440427258E-007   2.5378021657778587E-007
 chl          60   4.1348822771513201E-004   8.6426068714380252E-004  0.47842998514906715     
 chl2c          61   3.7805373434125003E-002   3.7805373434125003E-002  0.70794139999999994        2.7338803440427258E-007   1.4710444394342105E-016
 chl          61   3.2673698021904929E-005   8.6426068714380252E-004   3.7805373434125003E-002
 chl2c          62   3.7956103087269030E-002   3.7956103087269030E-002  0.76481592499999995        2.7338803440427258E-007   1.2026838521195337E-016
 chl          62   3.2803967735504135E-005   8.6426068714380252E-004   3.7956103087269030E-002
 chl2c          63  0.68895186890592930        3.7855601011927406E-002  0.72597904999999996        2.7338803440427258E-007   1.8464681782118876E-006
 chl          63   5.9543401562964541E-004   8.6426068714380252E-004  0.68895186890592930     
 chl2c          64   2.5708982294816416E-002   2.5708982294816416E-002  0.48435739999999999        6.6867291294614040E-007   1.0009794414975057E-016
 chl          64   2.2219262703885889E-005   8.6426068714380252E-004   2.5708982294816416E-002
 chl2c          65   3.7953597170552002E-002   3.7953597170552002E-002  0.76379975000000000        2.7338803440427258E-007   1.3277684091537922E-016
 chl          65   3.2801801970200351E-005   8.6426068714380252E-004   3.7953597170552002E-002
 chl2c          66   3.1840477731474713E-002   3.1840477731474713E-002  0.35213202499999996        1.7444643986466108E-007   7.5885774619850267E-017
 chl          66   2.7518473163191279E-005   8.6426068714380252E-004   3.1840477731474713E-002
 chl2c          67   3.7937587124568600E-002   3.7937587124568600E-002  0.75736760000000003        2.7338803440427258E-007   1.4040837650762759E-016
 chl          67   3.2787965116857536E-005   8.6426068714380252E-004   3.7937587124568600E-002
 chl2c          68  0.59037058276484733        3.7855407263856986E-002  0.72590779999999999        2.7338803440427258E-007   4.3221229232894549E-007
 chl          68   5.1023408552983412E-004   8.6426068714380252E-004  0.59037058276484733     
 chl2c          69  0.44593934680867120        2.1732330561541505E-002  0.45524217500000003        2.7338803440427258E-007   2.9829968142441193E-006
 chl          69   3.8540784629732063E-004   8.6426068714380252E-004  0.44593934680867120     
 chl2c          70   3.2658010878182209E-002   3.2658010878182209E-002  0.48694062500000002        1.7444643986466108E-007   9.5656432954027587E-017
 chl          70   2.8225034922327533E-005   8.6426068714380252E-004   3.2658010878182209E-002
 chl2c          71   4.3481058864416305E-002   4.3481058864416305E-002  0.23986107500000001        8.1233506133661262E-008   8.3504835427676249E-017
 chl          71   3.7578969811900564E-005   8.6426068714380252E-004   4.3481058864416305E-002
 chl2c          72   3.7549776402781669E-002   3.7549776402781669E-002  0.62790522500000001        2.7338803440427258E-007   1.6857894472877142E-016
 chl          72   3.2452795555964225E-005   8.6426068714380252E-004   3.7549776402781669E-002
 chl2c          73   3.1852614277819484E-002   3.1852614277819484E-002  0.35362212500000001        1.7444643986466108E-007   9.2065448179764897E-017
 chl          73   2.7528962303074761E-005   8.6426068714380252E-004   3.1852614277819484E-002
 chl2c          74  0.48655084296231638        3.7616827685877569E-002  0.64719590000000005        2.7338803440427258E-007   2.6794528945946066E-007
 chl          74   4.2050676586900793E-004   8.6426068714380252E-004  0.48655084296231638     
 chl2c          75   3.7826830779512356E-002   3.7826830779512356E-002  0.71554212500000003        2.7338803440427258E-007   1.3322396795191211E-016
 chl          75   3.2692242761973689E-005   8.6426068714380252E-004   3.7826830779512356E-002
 chl2c          76  0.54367054318010455        3.7257729557919804E-002  0.55513977500000000        2.7338803440427258E-007   3.5971067296394671E-006
 chl          76   4.6987307722868150E-004   8.6426068714380252E-004  0.54367054318010455     
 chl2c          77   3.7138172437479272E-002   3.7138172437479272E-002  0.52973029999999999        2.7338803440427258E-007   1.1719496191264336E-016
 chl          77   3.2097062430080861E-005   8.6426068714380252E-004   3.7138172437479272E-002
 chl2c          78  0.44774331228828035        4.7515248899399322E-002  0.45117492500000000        8.1233506133661262E-008   2.3910078241503251E-006
 chl          78   3.8696694274231133E-004   8.6426068714380252E-004  0.44774331228828035     
 prod   3.9931101473678199E-007  0.79965455939113739        10.000000000000000     
 dcdom   6.5134223024981636E-013  -4.5365870632863041E-010
 chl2c           1   3.7477407714772232E-002   3.7477407714772232E-002  0.60826437499999997        2.7307281134413343E-008   1.4809841674798799E-016
 chl           1   3.2703979066803970E-005   8.7263183504320268E-004   3.7477407714772232E-002
 chl2c           2  0.48173851537638807        3.2640259920490348E-002  0.48302390000000001        1.9155951493822280E-008   1.7338863302069100E-006
 chl           2   4.2038036468388561E-004   8.7263183504320268E-004  0.48173851537638807     
 chl2c           3   3.7922212503796585E-002   3.7922212503796585E-002  0.75128689999999998        2.7307281134413343E-008   1.5962757289761243E-016
 chl           3   3.3092129886086296E-005   8.7263183504320268E-004   3.7922212503796585E-002
 chl2c           4  0.77017704747768101        3.7976509103863923E-002  0.77318742499999993        2.7307281134413343E-008   2.7008648770807322E-006
 chl           4   6.7208101024860464E-004   8.7263183504320268E-004  0.77017704747768101     
 chl2c           5  0.48195631961203439        2.5710500362372445E-002  0.48489679999999996        7.1883724184976182E-008   2.8565332506053103E-006
 chl           5   4.2057042759371786E-004   8.7263183504320268E-004  0.48195631961203439     
 chl2c           6   3.1261039902252048E-002   3.1261039902252048E-002  0.29222855000000003        1.9155951493822280E-008   1.0168560738958567E-016
 chl           6   2.7279378615260987E-005   8.7263183504320268E-004   3.1261039902252048E-002
 chl2c           7  0.22754790200135688        4.3064391842467263E-002  0.22770740000000000        8.8846098515767108E-009   1.4431222011039034E-006
 chl           7   1.9856554328367490E-004   8.7263183504320268E-004  0.22754790200135688     
 chl2c           8   4.7969800906495587E-002   4.7969800906495587E-002  0.49578364999999996        8.8846098515767108E-009   7.3131123082849645E-017
 chl           8   4.1859975391692328E-005   8.7263183504320268E-004   4.7969800906495587E-002
 chl2c           9  0.27583844416736758        2.4803669054600401E-002  0.28700202499999999        7.1883724184976182E-008   2.5488061578692164E-007
 chl           9   2.4070540770923198E-004   8.7263183504320268E-004  0.27583844416736758     
 chl2c          10  0.38936789612381301        2.5387016219684602E-002  0.39094662499999999        7.1883724184976182E-008   3.4655377155776559E-006
 chl          10   3.3977482170143404E-004   8.7263183504320268E-004  0.38936789612381301     
 chl2c          11   2.1820572217820047E-002   2.1820572217820047E-002  0.49737575000000001        2.7307281134413343E-008   1.4646221837382666E-016
 chl          11   1.9041325976129034E-005   8.7263183504320268E-004   2.1820572217820047E-002
 chl2c          12   4.5290941298723353E-002   4.5290941298723353E-002  0.30768942500000002        8.8846098515767108E-009   7.2508605134136526E-017
 chl          12   3.9522317216338929E-005   8.7263183504320268E-004   4.5290941298723353E-002
 chl2c          13   3.7935816987997487E-002   3.7935816987997487E-002  0.75666275000000005        2.7307281134413343E-008   1.3290858499202549E-016
 chl          13   3.3104001592099350E-005   8.7263183504320268E-004   3.7935816987997487E-002
 chl2c          14   4.6856526101924839E-002   4.6856526101924839E-002  0.39804095000000000        8.8846098515767108E-009   8.0539611878723824E-017
 chl          14   4.0888496356072399E-005   8.7263183504320268E-004   4.6856526101924839E-002
 chl2c          15  0.25584763955515599        2.0954299823745293E-002  0.25607262500000000        2.7307281134413343E-008   3.9759289135444623E-006
 chl          15   2.2326079519648765E-004   8.7263183504320268E-004  0.25584763955515599     
 chl2c          16   3.7823443882273475E-002   3.7823443882273475E-002  0.71433214999999994        2.7307281134413343E-008   1.6612846946939680E-016
 chl          16   3.3005941242641899E-005   8.7263183504320268E-004   3.7823443882273475E-002
 chl2c          17   3.7542254757581245E-002   3.7542254757581245E-002  0.62580860000000005        2.7307281134413343E-008   1.6604594468909172E-016
 chl          17   3.2760566660767529E-005   8.7263183504320268E-004   3.7542254757581245E-002
 chl2c          18   2.5694475239060960E-002   2.5694475239060960E-002  0.47925950000000000        7.1883724184976182E-008   1.5282449725194719E-016
 chl          18   2.2421817078333898E-005   8.7263183504320268E-004   2.5694475239060960E-002
 chl2c          19  0.62893528447506353        3.7570220750293731E-002  0.63367130000000005        2.7307281134413343E-008   1.1489611559415317E-006
 chl          19   5.4882895141489339E-004   8.7263183504320268E-004  0.62893528447506353     
 chl2c          20   3.7020645196759419E-002   3.7020645196759419E-002  0.50678202500000002        2.7307281134413343E-008   1.4626063092487149E-016
 chl          20   3.2305393552531496E-005   8.7263183504320268E-004   3.7020645196759419E-002
 chl2c          21  0.69409272186688176        3.7838475073783531E-002  0.71973185000000006        2.7307281134413343E-008   2.6603172182857949E-007
 chl          21   6.0568740557282830E-004   8.7263183504320268E-004  0.69409272186688176     
 chl2c          22  0.64463181492728139        3.7613353106285476E-002  0.64616892500000001        2.7307281134413343E-008   3.6999964000134973E-006
 chl          22   5.6252624358722378E-004   8.7263183504320268E-004  0.64463181492728139     
 chl2c          23   3.2286562315070731E-002   3.2286562315070731E-002  0.41564179999999995        1.9155951493822280E-008   9.5892618048801042E-017
 chl          23   2.8174282120236886E-005   8.7263183504320268E-004   3.2286562315070731E-002
 chl2c          24   3.7348402796863071E-002   3.7348402796863071E-002  0.57597492500000003        2.7307281134413343E-008   1.1888641306550981E-016
 chl          24   3.2591405268559305E-005   8.7263183504320268E-004   3.7348402796863071E-002
 chl2c          25   4.5426679235459781E-002   4.5426679235459781E-002  0.31406487500000002        8.8846098515767108E-009   7.6194945319493581E-017
 chl          25   3.9640766461158220E-005   8.7263183504320268E-004   4.5426679235459781E-002
 chl2c          26   4.7955660680174553E-002   4.7955660680174553E-002  0.49427735000000000        8.8846098515767108E-009   7.0044891539018256E-017
 chl          26   4.1847636180049878E-005   8.7263183504320268E-004   4.7955660680174553E-002
 chl2c          27   4.5333133499525620E-002   4.5333133499525620E-002  0.30964730000000001        8.8846098515767108E-009   7.9927849982715951E-017
 chl          27   3.9559135473949528E-005   8.7263183504320268E-004   4.5333133499525620E-002
 chl2c          28   3.1209236063453518E-002   3.1209236063453518E-002  0.28776342500000002        1.9155951493822280E-008   7.9491633542986542E-017
 chl          28   2.7234172936347941E-005   8.7263183504320268E-004   3.1209236063453518E-002
 chl2c          29  0.68490179955421682        3.7743217595736761E-002  0.68676297499999994        2.7307281134413343E-008   3.4506136193577943E-006
 chl          29   5.9766711416938800E-004   8.7263183504320268E-004  0.68490179955421682     
 chl2c          30   2.5380056985171612E-002   2.5380056985171612E-002  0.38930277499999999        7.1883724184976182E-008   1.6738206195325376E-016
 chl          30   2.2147445700471359E-005   8.7263183504320268E-004   2.5380056985171612E-002
 chl2c          31  0.63408328840775818        3.7576959810037038E-002  0.63559385000000002        2.7307281134413343E-008   3.6428058168131355E-006
 chl          31   5.5332126353349034E-004   8.7263183504320268E-004  0.63408328840775818     
 chl2c          32  0.24700375683354148        2.0893126428578448E-002  0.24722667500000001        2.7307281134413343E-008   3.7402608405376853E-006
 chl          32   2.1554334158821830E-004   8.7263183504320268E-004  0.24700375683354148     
 chl2c          33  0.60010479149573326        3.7458922634011876E-002  0.60343137499999999        2.7307281134413343E-008   1.4862950036291676E-006
 chl          33   5.2367054542114028E-004   8.7263183504320268E-004  0.60010479149573326     
 chl2c          34  0.38049517401260408        2.5350269098008315E-002  0.38241020000000003        7.1883724184976182E-008   2.7308919804984405E-006
 chl          34   3.3203220192370140E-004   8.7263183504320268E-004  0.38049517401260408     
 chl2c          35   2.5740370148566064E-002   2.5740370148566064E-002  0.49574644999999995        7.1883724184976182E-008   1.2121357558907530E-016
 chl          35   2.2461866437434481E-005   8.7263183504320268E-004   2.5740370148566064E-002
 chl2c          36   3.7770393924465726E-002   3.7770393924465726E-002  0.69587337500000002        2.7307281134413343E-008   1.2664281079252086E-016
 chl          36   3.2959648160611162E-005   8.7263183504320268E-004   3.7770393924465726E-002
 chl2c          37   2.1353674699533250E-002   2.1353674699533250E-002  0.33194060000000003        2.7307281134413343E-008   1.1105623577913350E-016
 chl          37   1.8633896337969311E-005   8.7263183504320268E-004   2.1353674699533250E-002
 chl2c          38   2.1543295686358745E-002   2.1543295686358745E-002  0.38455722500000000        2.7307281134413343E-008   1.7081856119128683E-016
 chl          38   1.8799365647665545E-005   8.7263183504320268E-004   2.1543295686358745E-002
 chl2c          39   2.5670077108751441E-002   2.5670077108751441E-002  0.47091117500000002        7.1883724184976182E-008   1.3778768946524937E-016
 chl          39   2.2400526493110281E-005   8.7263183504320268E-004   2.5670077108751441E-002
 chl2c          40   3.7687445774703773E-002   3.7687445774703773E-002  0.66875547499999999        2.7307281134413343E-008   1.6644709428084097E-016
 chl          40   3.2887264964470949E-005   8.7263183504320268E-004   3.7687445774703773E-002
 chl2c          41   2.5582381488167241E-002   2.5582381488167241E-002  0.44304987499999998        7.1883724184976182E-008   1.0007455489028861E-016
 chl          41   2.2324000502794636E-005   8.7263183504320268E-004   2.5582381488167241E-002
 chl2c          42   3.7949995630725070E-002   3.7949995630725070E-002  0.76234377499999995        2.7307281134413343E-008   1.4054432497997878E-016
 chl          42   3.3116374327121138E-005   8.7263183504320268E-004   3.7949995630725070E-002
 chl2c          43   2.1185090152268007E-002   2.1185090152268007E-002  0.29539925000000000        2.7307281134413343E-008   1.7009434688558008E-016
 chl          43   1.8486784095129312E-005   8.7263183504320268E-004   2.1185090152268007E-002
 chl2c          44   3.7536352708156646E-002   3.7536352708156646E-002  0.62417262500000004        2.7307281134413343E-008   1.2016525846363876E-016
 chl          44   3.2755416344547624E-005   8.7263183504320268E-004   3.7536352708156646E-002
 chl2c          45  0.37622389084730262        4.6544927192009838E-002  0.37662252499999999        8.8846098515767108E-009   1.5790159726839920E-006
 chl          45   3.2830494425717529E-004   8.7263183504320268E-004  0.37622389084730262     
 chl2c          46  0.51776701037746542        3.7083195475449568E-002  0.51876034999999998        2.7307281134413343E-008   3.6919163910223160E-006
 chl          46   4.5181997639052063E-004   8.7263183504320268E-004  0.51776701037746542     
 chl2c          47   3.7519784612651236E-002   3.7519784612651236E-002  0.61962282499999999        2.7307281134413343E-008   1.5325636005597864E-016
 chl          47   3.2740958496963570E-005   8.7263183504320268E-004   3.7519784612651236E-002
 chl2c          48   3.7823212136301673E-002   3.7823212136301673E-002  0.71424949999999998        2.7307281134413343E-008   1.4742348398542563E-016
 chl          48   3.3005739013729260E-005   8.7263183504320268E-004   3.7823212136301673E-002
 chl2c          49   3.7152990741888416E-002   3.7152990741888416E-002  0.53276120000000005        2.7307281134413343E-008   1.3725136669409167E-016
 chl          49   3.2420882488437210E-005   8.7263183504320268E-004   3.7152990741888416E-002
 chl2c          50  0.38027977488473669        2.1533072915600981E-002  0.38132569999999999        2.7307281134413343E-008   1.8929850257723608E-006
 chl          50   3.3184423778748380E-004   8.7263183504320268E-004  0.38027977488473669     
 chl2c          51   2.0700971146093840E-002   2.0700971146093840E-002  0.22275920000000002        2.7307281134413343E-008   1.8143129009182951E-016
 chl          51   1.8064326438392260E-005   8.7263183504320268E-004   2.0700971146093840E-002
 chl2c          52   3.7581825176985564E-002   3.7581825176985564E-002  0.63698869999999996        2.7307281134413343E-008   1.6304006782262088E-016
 chl          52   3.2795097068465747E-005   8.7263183504320268E-004   3.7581825176985564E-002
 chl2c          53   3.7925801262726190E-002   3.7925801262726190E-002  0.75269794999999995        2.7307281134413343E-008   1.4610454113271302E-016
 chl          53   3.3095261551376566E-005   8.7263183504320268E-004   3.7925801262726190E-002
 chl2c          54   3.7082433371327092E-002   3.7082433371327092E-002  0.51861124999999997        2.7307281134413343E-008   1.1997313476453314E-016
 chl          54   3.2359311880688457E-005   8.7263183504320268E-004   3.7082433371327092E-002
 chl2c          55  0.57686673570223124        3.7357235588660491E-002  0.57808280000000001        2.7307281134413343E-008   3.7441864906500402E-006
 chl          55   5.0339227815122023E-004   8.7263183504320268E-004  0.57686673570223124     
 chl2c          56   3.7507394187257688E-002   3.7507394187257688E-002  0.61626080000000005        2.7307281134413343E-008   1.6346820734622505E-016
 chl          56   3.2730146217315430E-005   8.7263183504320268E-004   3.7507394187257688E-002
 chl2c          57  0.67994068161851373        3.7727617852646313E-002  0.68163462500000005        2.7307281134413343E-008   3.7357021724429029E-006
 chl          57   5.9333788472128971E-004   8.7263183504320268E-004  0.67994068161851373     
 chl2c          58  0.68705538526270582        3.7765358178394853E-002  0.69416802499999997        2.7307281134413343E-008   9.1553300927317464E-007
 chl          58   5.9954640161810960E-004   8.7263183504320268E-004  0.68705538526270582     
 chl2c          59   3.7173699120809672E-002   3.7173699120809672E-002  0.53705127500000005        2.7307281134413343E-008   1.6626586794118865E-016
 chl          59   3.2438953279136032E-005   8.7263183504320268E-004   3.7173699120809672E-002
 chl2c          60  0.62921042400003524        3.7607757740906807E-002  0.64452155000000000        2.7307281134413343E-008   3.6163852324044369E-007
 chl          60   5.4906904692346241E-004   8.7263183504320268E-004  0.62921042400003524     
 chl2c          61   3.7805373434125003E-002   3.7805373434125003E-002  0.70794139999999994        2.7307281134413343E-008   1.4300942495089495E-016
 chl          61   3.2990172394314049E-005   8.7263183504320268E-004   3.7805373434125003E-002
 chl2c          62   3.7956103087269030E-002   3.7956103087269030E-002  0.76481592499999995        2.7307281134413343E-008   1.1683528836660103E-016
 chl          62   3.3121703888132544E-005   8.7263183504320268E-004   3.7956103087269030E-002
 chl2c          63  0.72224026074325365        3.7855601011927406E-002  0.72597904999999996        2.7307281134413343E-008   1.9147993091908583E-006
 chl          63   6.3024984407446662E-004   8.7263183504320268E-004  0.72224026074325365     
 chl2c          64   2.5708982294816416E-002   2.5708982294816416E-002  0.48435739999999999        7.1883724184976182E-008   9.7384743256189628E-017
 chl          64   2.2434476397018858E-005   8.7263183504320268E-004   2.5708982294816416E-002
 chl2c          65   3.7953597170552002E-002   3.7953597170552002E-002  0.76379975000000000        2.7307281134413343E-008   1.2903061740900126E-016
 chl          65   3.3119517145429296E-005   8.7263183504320268E-004   3.7953597170552002E-002
 chl2c          66   3.1840477731474713E-002   3.1840477731474713E-002  0.35213202499999996        1.9155951493822280E-008   7.5804926874208669E-017
 chl          66   2.7785014511469011E-005   8.7263183504320268E-004   3.1840477731474713E-002
 chl2c          67   3.7937587124568600E-002   3.7937587124568600E-002  0.75736760000000003        2.7307281134413343E-008   1.3647506239369032E-016
 chl          67   3.3105546269623675E-005   8.7263183504320268E-004   3.7937587124568600E-002
 chl2c          68  0.71389015840242853        3.7855407263856986E-002  0.72590779999999999        2.7307281134413343E-008   5.8876512335323591E-007
 chl          68   6.2296327894599383E-004   8.7263183504320268E-004  0.71389015840242853     
 chl2c          69  0.45425964432185456        2.1732330561541505E-002  0.45524217500000003        2.7307281134413343E-008   2.8737500541509500E-006
 chl          69   3.9640142701065253E-004   8.7263183504320268E-004  0.45425964432185456     
 chl2c          70   3.2658010878182209E-002   3.2658010878182209E-002  0.48694062500000002        1.9155951493822280E-008   9.5535249425724533E-017
 chl          70   2.8498419961489016E-005   8.7263183504320268E-004   3.2658010878182209E-002
 chl2c          71   4.3481058864416305E-002   4.3481058864416305E-002  0.23986107500000001        8.8846098515767108E-009   8.3417295163182314E-017
 chl          71   3.7942956186477114E-005   8.7263183504320268E-004   4.3481058864416305E-002
 chl2c          72   3.7549776402781669E-002   3.7549776402781669E-002  0.62790522500000001        2.7307281134413343E-008   1.6398067754449898E-016
 chl          72   3.2767130287821317E-005   8.7263183504320268E-004   3.7549776402781669E-002
 chl2c          73   3.1852614277819484E-002   3.1852614277819484E-002  0.35362212500000001        1.9155951493822280E-008   9.1970698575576756E-017
 chl          73   2.7795605248176936E-005   8.7263183504320268E-004   3.1852614277819484E-002
 chl2c          74  0.63308926101090857        3.7616827685877569E-002  0.64719590000000005        2.7307281134413343E-008   3.9657526005660994E-007
 chl          74   5.5245384358209421E-004   8.7263183504320268E-004  0.63308926101090857     
 chl2c          75   3.7826830779512356E-002   3.7826830779512356E-002  0.71554212500000003        2.7307281134413343E-008   1.2946670056646538E-016
 chl          75   3.3008896756994569E-005   8.7263183504320268E-004   3.7826830779512356E-002
 chl2c          76  0.55392857347578417        3.7257729557919804E-002  0.55513977500000000        2.7307281134413343E-008   3.4664757809243518E-006
 chl          76   4.8337570755503705E-004   8.7263183504320268E-004  0.55392857347578417     
 chl2c          77   3.7138172437479272E-002   3.7138172437479272E-002  0.52973029999999999        2.7307281134413343E-008   1.1384003979887906E-016
 chl          77   3.2407951564268431E-005   8.7263183504320268E-004   3.7138172437479272E-002
 chl2c          78  0.45078833491893605        4.7515248899399322E-002  0.45117492500000000        8.8846098515767108E-009   2.3370891701234418E-006
 chl          78   3.9337225191638100E-004   8.7263183504320268E-004  0.45078833491893605     
 prod   3.9881774996240271E-007   8.6043837542588195E-002   10.000000000000000     
 dcdom   7.0479626112132413E-013  -3.1275453910967799E-010
 chl2c           1   3.7477407714772232E-002   3.7477407714772232E-002  0.60826437499999997        2.9380095930352126E-009   1.4505741607913564E-016
 chl           1   3.3037534155203300E-005   8.8153199940189855E-004   3.7477407714772232E-002
 chl2c           2  0.48287393770486409        3.2640259920490348E-002  0.48302390000000001        2.1865672881256223E-009   1.7004080732541961E-006
 chl           2   4.2566882776403665E-004   8.8153199940189855E-004  0.48287393770486409     
 chl2c           3   3.7922212503796585E-002   3.7922212503796585E-002  0.75128689999999998        2.9380095930352126E-009   1.5638507254765655E-016
 chl           3   3.3429643810215481E-005   8.8153199940189855E-004   3.7922212503796585E-002
 chl2c           4  0.77288096817717755        3.7976509103863923E-002  0.77318742499999993        2.9380095930352126E-009   2.8645164086664117E-006
 chl           4   6.8131930517690241E-004   8.8153199940189855E-004  0.77288096817717755     
 chl2c           5  0.48455561182078410        2.5710500362372445E-002  0.48489679999999996        7.9902462841058766E-009   2.7512441978389376E-006
 chl           5   4.2715127730978605E-004   8.8153199940189855E-004  0.48455561182078410     
 chl2c           6   3.1261039902252048E-002   3.1261039902252048E-002  0.29222855000000003        2.1865672881256223E-009   1.0156448852533196E-016
 chl           6   2.7557607008414779E-005   8.8153199940189855E-004   3.1261039902252048E-002
 chl2c           7  0.22768992743032657        4.3064391842467263E-002  0.22770740000000000        1.0145758624889767E-009   1.5052849255386520E-006
 chl           7   2.0071595697132897E-004   8.8153199940189855E-004  0.22768992743032657     
 chl2c           8   4.7969800906495587E-002   4.7969800906495587E-002  0.49578364999999996        1.0145758624889767E-009   7.3064914033003690E-017
 chl           8   4.2286914504014062E-005   8.8153199940189855E-004   4.7969800906495587E-002
 chl2c           9  0.28638361309031962        2.4803669054600401E-002  0.28700202499999999        7.9902462841058766E-009   5.3098890947171390E-007
 chl           9   2.5245631904344918E-004   8.8153199940189855E-004  0.28638361309031962     
 chl2c          10  0.39076421517599452        2.5387016219684602E-002  0.39094662499999999        7.9902462841058766E-009   3.3459095753557281E-006
 chl          10   3.4447115989880817E-004   8.8153199940189855E-004  0.39076421517599452     
 chl2c          11   2.1820572217820047E-002   2.1820572217820047E-002  0.49737575000000001        2.9380095930352126E-009   1.4375203482436224E-016
 chl          11   1.9235532655268425E-005   8.8153199940189855E-004   2.1820572217820047E-002
 chl2c          12   4.5290941298723353E-002   4.5290941298723353E-002  0.30768942500000002        1.0145758624889767E-009   7.2442874266711868E-017
 chl          12   3.9925414037857616E-005   8.8153199940189855E-004   4.5290941298723353E-002
 chl2c          13   3.7935816987997487E-002   3.7935816987997487E-002  0.75666275000000005        2.9380095930352126E-009   1.3014061806556783E-016
 chl          13   3.3441636598373930E-005   8.8153199940189855E-004   3.7935816987997487E-002
 chl2c          14   4.6856526101924839E-002   4.6856526101924839E-002  0.39804095000000000        1.0145758624889767E-009   8.0441735128769133E-017
 chl          14   4.1305527139657051E-005   8.8153199940189855E-004   4.6856526101924839E-002
 chl2c          15  0.25604755609523305        2.0954299823745293E-002  0.25607262500000000        2.9380095930352126E-009   3.8421263411558149E-006
 chl          15   2.2571411406660058E-004   8.8153199940189855E-004  0.25604755609523305     
 chl2c          16   3.7823443882273475E-002   3.7823443882273475E-002  0.71433214999999994        2.9380095930352126E-009   1.6277451631366416E-016
 chl          16   3.3342576109806047E-005   8.8153199940189855E-004   3.7823443882273475E-002
 chl2c          17   3.7542254757581245E-002   3.7542254757581245E-002  0.62580860000000005        2.9380095930352126E-009   1.6269339660746689E-016
 chl          17   3.3094698898506029E-005   8.8153199940189855E-004   3.7542254757581245E-002
 chl2c          18   2.5694475239060960E-002   2.5694475239060960E-002  0.47925950000000000        7.9902462841058766E-009   1.5002765884818375E-016
 chl          18   2.2650502131071984E-005   8.8153199940189855E-004   2.5694475239060960E-002
 chl2c          19  0.63323053773058302        3.7570220750293731E-002  0.63367130000000005        2.9380095930352126E-009   1.3373487978821232E-006
 chl          19   5.5821298200798024E-004   8.8153199940189855E-004  0.63323053773058302     
 chl2c          20   3.7020645196759419E-002   3.7020645196759419E-002  0.50678202500000002        2.9380095930352126E-009   1.4325220592306807E-016
 chl          20   3.2634883379447621E-005   8.8153199940189855E-004   3.7020645196759419E-002
 chl2c          21  0.71807002115933483        3.7838475073783531E-002  0.71973185000000006        2.9380095930352126E-009   4.5685085231302773E-007
 chl          21   6.3300170146315200E-004   8.8153199940189855E-004  0.71807002115933483     
 chl2c          22  0.64600050814034948        3.7613353106285476E-002  0.64616892500000001        2.9380095930352126E-009   3.6409656089767905E-006
 chl          22   5.6947011955560476E-004   8.8153199940189855E-004  0.64600050814034948     
 chl2c          23   3.2286562315070731E-002   3.2286562315070731E-002  0.41564179999999995        2.1865672881256223E-009   9.5809932274793398E-017
 chl          23   2.8461637831418291E-005   8.8153199940189855E-004   3.2286562315070731E-002
 chl2c          24   3.7348402796863071E-002   3.7348402796863071E-002  0.57597492500000003        2.9380095930352126E-009   1.1637818417426713E-016
 chl          24   3.2923812191986161E-005   8.8153199940189855E-004   3.7348402796863071E-002
 chl2c          25   4.5426679235459781E-002   4.5426679235459781E-002  0.31406487500000002        1.0145758624889767E-009   7.6126404192683729E-017
 chl          25   4.0045071372623571E-005   8.8153199940189855E-004   4.5426679235459781E-002
 chl2c          26   4.7955660680174553E-002   4.7955660680174553E-002  0.49427735000000000        1.0145758624889767E-009   6.9981067544263254E-017
 chl          26   4.2274449442033282E-005   8.8153199940189855E-004   4.7955660680174553E-002
 chl2c          27   4.5333133499525620E-002   4.5333133499525620E-002  0.30964730000000001        1.0145758624889767E-009   7.9830659710484608E-017
 chl          27   3.9962607812990004E-005   8.8153199940189855E-004   4.5333133499525620E-002
 chl2c          28   3.1209236063453518E-002   3.1209236063453518E-002  0.28776342500000002        2.1865672881256223E-009   7.9394933258463463E-017
 chl          28   2.7511940266822019E-005   8.8153199940189855E-004   3.1209236063453518E-002
 chl2c          29  0.68655463101849656        3.7743217595736761E-002  0.68676297499999994        2.9380095930352126E-009   3.3244838587657320E-006
 chl          29   6.0521987658036802E-004   8.8153199940189855E-004  0.68655463101849656     
 chl2c          30   2.5380056985171612E-002   2.5380056985171612E-002  0.38930277499999999        7.9902462841058766E-009   1.6439602870254853E-016
 chl          30   2.2373332379072454E-005   8.8153199940189855E-004   2.5380056985171612E-002
 chl2c          31  0.63542294093925400        3.7576959810037038E-002  0.63559385000000002        2.9380095930352126E-009   3.4713683779152766E-006
 chl          31   5.6014565559201509E-004   8.8153199940189855E-004  0.63542294093925400     
 chl2c          32  0.24720287075698530        2.0893126428578448E-002  0.24722667500000001        2.9380095930352126E-009   3.7715309538959400E-006
 chl          32   2.1791724091629438E-004   8.8153199940189855E-004  0.24720287075698530     
 chl2c          33  0.60311015894085784        3.7458922634011876E-002  0.60343137499999999        2.9380095930352126E-009   1.6643723617476856E-006
 chl          33   5.3166090427073120E-004   8.8153199940189855E-004  0.60311015894085784     
 chl2c          34  0.38218410349467002        2.5350269098008315E-002  0.38241020000000003        7.9902462841058766E-009   2.5824885652863680E-006
 chl          34   3.3690751689327856E-004   8.8153199940189855E-004  0.38218410349467002     
 chl2c          35   2.5740370148566064E-002   2.5740370148566064E-002  0.49574644999999995        7.9902462841058766E-009   1.1887156143334684E-016
 chl          35   2.2690959962410386E-005   8.8153199940189855E-004   2.5740370148566064E-002
 chl2c          36   3.7770393924465726E-002   3.7770393924465726E-002  0.69587337500000002        2.9380095930352126E-009   1.2398999025281690E-016
 chl          36   3.3295810874431591E-005   8.8153199940189855E-004   3.7770393924465726E-002
 chl2c          37   2.1353674699533250E-002   2.1353674699533250E-002  0.33194060000000003        2.9380095930352126E-009   1.0887346871627782E-016
 chl          37   1.8823947552457280E-005   8.8153199940189855E-004   2.1353674699533250E-002
 chl2c          38   2.1543295686358745E-002   2.1543295686358745E-002  0.38455722500000000        2.9380095930352126E-009   1.6778969000653847E-016
 chl          38   1.8991104520102119E-005   8.8153199940189855E-004   2.1543295686358745E-002
 chl2c          39   2.5670077108751441E-002   2.5670077108751441E-002  0.47091117500000002        7.9902462841058766E-009   1.3519959377799887E-016
 chl          39   2.2628994398478566E-005   8.8153199940189855E-004   2.5670077108751441E-002
 chl2c          40   3.7687445774703773E-002   3.7687445774703773E-002  0.66875547499999999        2.9380095930352126E-009   1.6308771854021765E-016
 chl          40   3.3222689426125253E-005   8.8153199940189855E-004   3.7687445774703773E-002
 chl2c          41   2.5582381488167241E-002   2.5582381488167241E-002  0.44304987499999998        7.9902462841058766E-009   9.8071285145638280E-017
 chl          41   2.2551687902726184E-005   8.8153199940189855E-004   2.5582381488167241E-002
 chl2c          42   3.7949995630725070E-002   3.7949995630725070E-002  0.76234377499999995        2.9380095930352126E-009   1.3763802917092037E-016
 chl          42   3.3454135525646385E-005   8.8153199940189855E-004   3.7949995630725070E-002
 chl2c          43   2.1185090152268007E-002   2.1185090152268007E-002  0.29539925000000000        2.9380095930352126E-009   1.6707444595839817E-016
 chl          43   1.8675334879438287E-005   8.8153199940189855E-004   2.1185090152268007E-002
 chl2c          44   3.7536352708156646E-002   3.7536352708156646E-002  0.62417262500000004        2.9380095930352126E-009   1.1763303313431021E-016
 chl          44   3.3089496053076200E-005   8.8153199940189855E-004   3.7536352708156646E-002
 chl2c          45  0.37656919411587403        4.6544927192009838E-002  0.37662252499999999        1.0145758624889767E-009   1.3490462105504453E-006
 chl          45   3.3195779460212809E-004   8.8153199940189855E-004  0.37656919411587403     
 chl2c          46  0.51864897746189631        3.7083195475449568E-002  0.51876034999999998        2.9380095930352126E-009   3.5488316472811179E-006
 chl          46   4.5720567008973568E-004   8.8153199940189855E-004  0.51864897746189631     
 chl2c          47   3.7519784612651236E-002   3.7519784612651236E-002  0.61962282499999999        2.9380095930352126E-009   1.5012460294490118E-016
 chl          47   3.3074890746719028E-005   8.8153199940189855E-004   3.7519784612651236E-002
 chl2c          48   3.7823212136301673E-002   3.7823212136301673E-002  0.71424949999999998        2.9380095930352126E-009   1.4439443222899256E-016
 chl          48   3.3342371818316167E-005   8.8153199940189855E-004   3.7823212136301673E-002
 chl2c          49   3.7152990741888416E-002   3.7152990741888416E-002  0.53276120000000005        2.9380095930352126E-009   1.3440445809360433E-016
 chl          49   3.2751550212457124E-005   8.8153199940189855E-004   3.7152990741888416E-002
 chl2c          50  0.38122503442721062        2.1533072915600981E-002  0.38132569999999999        2.9380095930352126E-009   2.1213861703268278E-006
 chl          50   3.3606206682067658E-004   8.8153199940189855E-004  0.38122503442721062     
 chl2c          51   2.0700971146093840E-002   2.0700971146093840E-002  0.22275920000000002        2.9380095930352126E-009   1.7827446647150065E-016
 chl          51   1.8248568483977115E-005   8.8153199940189855E-004   2.0700971146093840E-002
 chl2c          52   3.7581825176985564E-002   3.7581825176985564E-002  0.63698869999999996        2.9380095930352126E-009   1.5973886879756665E-016
 chl          52   3.3129581489440692E-005   8.8153199940189855E-004   3.7581825176985564E-002
 chl2c          53   3.7925801262726190E-002   3.7925801262726190E-002  0.75269794999999995        2.9380095930352126E-009   1.4309888869367555E-016
 chl          53   3.3432807416050070E-005   8.8153199940189855E-004   3.7925801262726190E-002
 chl2c          54   3.7082433371327092E-002   3.7082433371327092E-002  0.51861124999999997        2.9380095930352126E-009   1.1744451051630669E-016
 chl          54   3.2689351632513659E-005   8.8153199940189855E-004   3.7082433371327092E-002
 chl2c          55  0.57794881520971120        3.7357235588660491E-002  0.57808280000000001        2.9380095930352126E-009   3.6630861991813207E-006
 chl          55   5.0948037462377512E-004   8.8153199940189855E-004  0.57794881520971120     
 chl2c          56   3.7507394187257688E-002   3.7507394187257688E-002  0.61626080000000005        2.9380095930352126E-009   1.6015967415231626E-016
 chl          56   3.3063968190248418E-005   8.8153199940189855E-004   3.7507394187257688E-002
 chl2c          57  0.68143974767361282        3.7727617852646313E-002  0.68163462500000005        2.9380095930352126E-009   3.5013941855816982E-006
 chl          57   6.0071094323864514E-004   8.8153199940189855E-004  0.68143974767361282     
 chl2c          58  0.69356454366663323        3.7765358178394853E-002  0.69416802499999997        2.9380095930352126E-009   1.1719547966062108E-006
 chl          58   6.1139933889271260E-004   8.8153199940189855E-004  0.69356454366663323     
 chl2c          59   3.7173699120809672E-002   3.7173699120809672E-002  0.53705127500000005        2.9380095930352126E-009   1.6290957598242792E-016
 chl          59   3.2769805311131945E-005   8.8153199940189855E-004   3.7173699120809672E-002
 chl2c          60  0.64338649785534552        3.7607757740906807E-002  0.64452155000000000        2.9380095930352126E-009   5.3668169854019926E-007
 chl          60   5.6716578584260801E-004   8.8153199940189855E-004  0.64338649785534552     
 chl2c          61   3.7805373434125003E-002   3.7805373434125003E-002  0.70794139999999994        2.9380095930352126E-009   1.4005893740183405E-016
 chl          61   3.3326646431519633E-005   8.8153199940189855E-004   3.7805373434125003E-002
 chl2c          62   3.7956103087269030E-002   3.7956103087269030E-002  0.76481592499999995        2.9380095930352126E-009   1.1436567655848005E-016
 chl          62   3.3459519444024841E-005   8.8153199940189855E-004   3.7956103087269030E-002
 chl2c          63  0.72559765485145034        3.7855601011927406E-002  0.72597904999999996        2.9380095930352126E-009   2.0289344115786960E-006
 chl          63   6.3963755144252768E-004   8.8153199940189855E-004  0.72559765485145034     
 chl2c          64   2.5708982294816416E-002   2.5708982294816416E-002  0.48435739999999999        7.9902462841058766E-009   9.5426610606124048E-017
 chl          64   2.2663290564937524E-005   8.8153199940189855E-004   2.5708982294816416E-002
 chl2c          65   3.7953597170552002E-002   3.7953597170552002E-002  0.76379975000000000        2.9380095930352126E-009   1.2633374172307302E-016
 chl          65   3.3457310398250948E-005   8.8153199940189855E-004   3.7953597170552002E-002
 chl2c          66   3.1840477731474713E-002   3.1840477731474713E-002  0.35213202499999996        2.1865672881256223E-009   7.5736680642532044E-017
 chl          66   2.8068399996538529E-005   8.8153199940189855E-004   3.1840477731474713E-002
 chl2c          67   3.7937587124568600E-002   3.7937587124568600E-002  0.75736760000000003        2.9380095930352126E-009   1.3364221327919599E-016
 chl          67   3.3443197030404678E-005   8.8153199940189855E-004   3.7937587124568600E-002
 chl2c          68  0.72498911216582751        3.7855407263856986E-002  0.72590779999999999        2.9380095930352126E-009   8.4152727389142758E-007
 chl          68   6.3910110159214918E-004   8.8153199940189855E-004  0.72498911216582751     
 chl2c          69  0.45513239015870049        2.1732330561541505E-002  0.45524217500000003        2.9380095930352126E-009   2.7724330589855899E-006
 chl          69   4.0121376588916425E-004   8.8153199940189855E-004  0.45513239015870049     
 chl2c          70   3.2658010878182209E-002   3.2658010878182209E-002  0.48694062500000002        2.1865672881256223E-009   9.5420794769871843E-017
 chl          70   2.8789081625932916E-005   8.8153199940189855E-004   3.2658010878182209E-002
 chl2c          71   4.3481058864416305E-002   4.3481058864416305E-002  0.23986107500000001        1.0145758624889767E-009   8.3343397229447993E-017
 chl          71   3.8329944756860551E-005   8.8153199940189855E-004   4.3481058864416305E-002
 chl2c          72   3.7549776402781669E-002   3.7549776402781669E-002  0.62790522500000001        2.9380095930352126E-009   1.6066337444463750E-016
 chl          72   3.3101329469438352E-005   8.8153199940189855E-004   3.7549776402781669E-002
 chl2c          73   3.1852614277819484E-002   3.1852614277819484E-002  0.35362212500000001        2.1865672881256223E-009   9.1890711979489195E-017
 chl          73   2.8079098750503671E-005   8.8153199940189855E-004   3.1852614277819484E-002
 chl2c          74  0.64618204493962594        3.7616827685877569E-002  0.64719590000000005        2.9380095930352126E-009   6.0595166674123451E-007
 chl          74   5.6963015005323590E-004   8.8153199940189855E-004  0.64618204493962594     
 chl2c          75   3.7826830779512356E-002   3.7826830779512356E-002  0.71554212500000003        2.9380095930352126E-009   1.2676180232604124E-016
 chl          75   3.3345561768100801E-005   8.8153199940189855E-004   3.7826830779512356E-002
 chl2c          76  0.55500452946628887        3.7257729557919804E-002  0.55513977500000000        2.9380095930352126E-009   3.3465641493045246E-006
 chl          76   4.8925425253752751E-004   8.8153199940189855E-004  0.55500452946628887     
 chl2c          77  0.47530084667460598        3.7138172437479272E-002  0.52973029999999999        2.9380095930352126E-009   6.7953627339924070E-009
 chl          77   4.1899290568648065E-004   8.8153199940189855E-004  0.47530084667460598     
 chl2c          78  0.45112888199172269        4.7515248899399322E-002  0.45117492500000000        1.0145758624889767E-009   2.2425205226482972E-006
 chl          78   3.9768454533010647E-004   8.8153199940189855E-004  0.45112888199172269     
 prod   3.9840149958272426E-007   9.7054058463646679E-003   10.000000000000000     
 dcdom   7.6344119843233018E-013  -2.9754073053313252E-010
 chl2c           1   3.7477407714772232E-002   3.7477407714772232E-002  0.60826437499999997        3.2897143775218188E-010   1.4212232649225133E-016
 chl           1   3.2676464456464063E-005   8.7189766979491989E-004   3.7477407714772232E-002
 chl2c           2  0.48300635203350561        3.2640259920490348E-002  0.48302390000000001        2.5409023518823675E-010   1.6890894347461726E-006
 chl           2   4.2113211283415831E-004   8.7189766979491989E-004  0.48300635203350561     
 chl2c           3   3.7922212503796585E-002   3.7922212503796585E-002  0.75128689999999998        3.2897143775218188E-010   1.5326233261378081E-016
 chl           3   3.3064288715528014E-005   8.7189766979491989E-004   3.7922212503796585E-002
 chl2c           4  0.77315473029553805        3.7976509103863923E-002  0.77318742499999993        3.2897143775218188E-010   3.0074746867968791E-006
 chl           4   6.7411180773559935E-004   8.7189766979491989E-004  0.77315473029553805     
 chl2c           5  0.48485637557416211        2.5710500362372445E-002  0.48489679999999996        9.0631335241073702E-010   2.6355238535338451E-006
 chl           5   4.2274514404832246E-004   8.7189766979491989E-004  0.48485637557416211     
 chl2c           6   3.1261039902252048E-002   3.1261039902252048E-002  0.29222855000000003        2.5409023518823675E-010   1.0327858918498802E-016
 chl           6   2.7256427846139571E-005   8.7189766979491989E-004   3.1261039902252048E-002
 chl2c           7  0.22770545667671774        4.3064391842467263E-002  0.22770740000000000        1.1817171732958406E-010   1.5764822308224383E-006
 chl           7   1.9853585707601827E-004   8.7189766979491989E-004  0.22770545667671774     
 chl2c           8   4.7969800906495587E-002   4.7969800906495587E-002  0.49578364999999996        1.1817171732958406E-010   7.4435582029314458E-017
 chl           8   4.1824757630899740E-005   8.7189766979491989E-004   4.7969800906495587E-002
 chl2c           9  0.28695981256114966        2.4803669054600401E-002  0.28700202499999999        9.0631335241073702E-010   8.8412562716328056E-007
 chl           9   2.5019959189685336E-004   8.7189766979491989E-004  0.28695981256114966     
 chl2c          10  0.39092514372840936        2.5387016219684602E-002  0.39094662499999999        9.0631335241073702E-010   3.2240329335444257E-006
 chl          10   3.4084672188104426E-004   8.7189766979491989E-004  0.39092514372840936     
 chl2c          11   2.1820572217820047E-002   2.1820572217820047E-002  0.49737575000000001        3.2897143775218188E-010   1.4119341127767924E-016
 chl          11   1.9025306070309066E-005   8.7189766979491989E-004   2.1820572217820047E-002
 chl2c          12   4.5290941298723353E-002   4.5290941298723353E-002  0.30768942500000002        1.1817171732958406E-010   7.3803674481572843E-017
 chl          12   3.9489066181175395E-005   8.7189766979491989E-004   4.5290941298723353E-002
 chl2c          13   3.7935816987997487E-002   3.7935816987997487E-002  0.75666275000000005        3.2897143775218188E-010   1.2746150744028129E-016
 chl          13   3.3076150433601543E-005   8.7189766979491989E-004   3.7935816987997487E-002
 chl2c          14   4.6856526101924839E-002   4.6856526101924839E-002  0.39804095000000000        1.1817171732958406E-010   8.1860782641471832E-017
 chl          14   4.0854095922953105E-005   8.7189766979491989E-004   4.6856526101924839E-002
 chl2c          15  0.25606971464311595        2.0954299823745293E-002  0.25607262500000000        3.2897143775218188E-010   3.7059821257487157E-006
 chl          15   2.2326658750238288E-004   8.7189766979491989E-004  0.25606971464311595     
 chl2c          16   3.7823443882273475E-002   3.7823443882273475E-002  0.71433214999999994        3.2897143775218188E-010   1.5954847312878740E-016
 chl          16   3.2978172584573160E-005   8.7189766979491989E-004   3.7823443882273475E-002
 chl2c          17   3.7542254757581245E-002   3.7542254757581245E-002  0.62580860000000005        3.2897143775218188E-010   1.5946865351472783E-016
 chl          17   3.2733004441982331E-005   8.7189766979491989E-004   3.7542254757581245E-002
 chl2c          18   2.5694475239060960E-002   2.5694475239060960E-002  0.47925950000000000        9.0631335241073702E-010   1.4739377671915483E-016
 chl          18   2.2402953087540517E-005   8.7189766979491989E-004   2.5694475239060960E-002
 chl2c          19  0.63362822357475734        3.7570220750293731E-002  0.63367130000000005        3.2897143775218188E-010   1.5331586337432845E-006
 chl          19   5.5245897165112547E-004   8.7189766979491989E-004  0.63362822357475734     
 chl2c          20   3.7020645196759419E-002   3.7020645196759419E-002  0.50678202500000002        3.2897143775218188E-010   1.4034755620092028E-016
 chl          20   3.2278214281359033E-005   8.7189766979491989E-004   3.7020645196759419E-002
 chl2c          21  0.71960892140678190        3.7838475073783531E-002  0.71973185000000006        3.2897143775218188E-010   6.9301485869410737E-007
 chl          21   6.2742534173820883E-004   8.7189766979491989E-004  0.71960892140678190     
 chl2c          22  0.64614963640230749        3.7613353106285476E-002  0.64616892500000001        3.2897143775218188E-010   3.5604649511911491E-006
 chl          22   5.6337636231800663E-004   8.7189766979491989E-004  0.64614963640230749     
 chl2c          23   3.2286562315070731E-002   3.2286562315070731E-002  0.41564179999999995        2.5409023518823675E-010   9.7520250806166994E-017
 chl          23   2.8150578448198645E-005   8.7189766979491989E-004   3.2286562315070731E-002
 chl2c          24   3.7348402796863071E-002   3.7348402796863071E-002  0.57597492500000003        3.2897143775218188E-010   1.1394428641649910E-016
 chl          24   3.2563985369146981E-005   8.7189766979491989E-004   3.7348402796863071E-002
 chl2c          25   4.5426679235459781E-002   4.5426679235459781E-002  0.31406487500000002        1.1817171732958406E-010   7.7545188930924942E-017
 chl          25   3.9607415771918659E-005   8.7189766979491989E-004   4.5426679235459781E-002
 chl2c          26   4.7955660680174553E-002   4.7955660680174553E-002  0.49427735000000000        1.1817171732958406E-010   7.1302512015211927E-017
 chl          26   4.1812428800520054E-005   8.7189766979491989E-004   4.7955660680174553E-002
 chl2c          27   4.5333133499525620E-002   4.5333133499525620E-002  0.30964730000000001        1.1817171732958406E-010   8.1240699003324129E-017
 chl          27   3.9525853462738407E-005   8.7189766979491989E-004   4.5333133499525620E-002
 chl2c          28   3.1209236063453518E-002   3.1209236063453518E-002  0.28776342500000002        2.5409023518823675E-010   8.0798532947634912E-017
 chl          28   2.7211260199804700E-005   8.7189766979491989E-004   3.1209236063453518E-002
 chl2c          29  0.68673869378632180        3.7743217595736761E-002  0.68676297499999994        3.2897143775218188E-010   3.1948921169840552E-006
 chl          29   5.9876586687030104E-004   8.7189766979491989E-004  0.68673869378632180     
 chl2c          30   2.5380056985171612E-002   2.5380056985171612E-002  0.38930277499999999        9.0631335241073702E-010   1.6160034695570465E-016
 chl          30   2.2128812544633410E-005   8.7189766979491989E-004   2.5380056985171612E-002
 chl2c          31  0.63557355825148987        3.7576959810037038E-002  0.63559385000000002        3.2897143775218188E-010   3.2745696580277956E-006
 chl          31   5.5415510442273985E-004   8.7189766979491989E-004  0.63557355825148987     
 chl2c          32  0.24722399827525884        2.0893126428578448E-002  0.24722667500000001        3.2897143775218188E-010   3.7558690146499160E-006
 chl          32   2.1555402801358149E-004   8.7189766979491989E-004  0.24722399827525884     
 chl2c          33  0.60339883263039928        3.7458922634011876E-002  0.60343137499999999        3.2897143775218188E-010   1.8403964075182920E-006
 chl          33   5.2610203612742004E-004   8.7189766979491989E-004  0.60339883263039928     
 chl2c          34  0.38238253972902853        2.5350269098008315E-002  0.38241020000000003        9.0631335241073702E-010   2.3956285128274661E-006
 chl          34   3.3339844536000337E-004   8.7189766979491989E-004  0.38238253972902853     
 chl2c          35   2.5740370148566064E-002   2.5740370148566064E-002  0.49574644999999995        9.0631335241073702E-010   1.1663949981982811E-016
 chl          35   2.2442968752193468E-005   8.7189766979491989E-004   2.5740370148566064E-002
 chl2c          36   3.7770393924465726E-002   3.7770393924465726E-002  0.69587337500000002        3.2897143775218188E-010   1.2141938995322515E-016
 chl          36   3.2931918449977862E-005   8.7189766979491989E-004   3.7770393924465726E-002
 chl2c          37   2.1353674699533250E-002   2.1353674699533250E-002  0.33194060000000003        3.2897143775218188E-010   1.0678560710911926E-016
 chl          37   1.8618219212081776E-005   8.7189766979491989E-004   2.1353674699533250E-002
 chl2c          38   2.1543295686358745E-002   2.1543295686358745E-002  0.38455722500000000        3.2897143775218188E-010   1.6495789822037911E-016
 chl          38   1.8783549308639139E-005   8.7189766979491989E-004   2.1543295686358745E-002
 chl2c          39   2.5670077108751441E-002   2.5670077108751441E-002  0.47091117500000002        9.0631335241073702E-010   1.3274810235618495E-016
 chl          39   2.2381680414576296E-005   8.7189766979491989E-004   2.5670077108751441E-002
 chl2c          40   3.7687445774703773E-002   3.7687445774703773E-002  0.66875547499999999        3.2897143775218188E-010   1.5985665846949724E-016
 chl          40   3.2859596151486620E-005   8.7189766979491989E-004   3.7687445774703773E-002
 chl2c          41   2.5582381488167241E-002   2.5582381488167241E-002  0.44304987499999998        9.0631335241073702E-010   9.6147784728367641E-017
 chl          41   2.2305218807337711E-005   8.7189766979491989E-004   2.5582381488167241E-002
 chl2c          42   3.7949995630725070E-002   3.7949995630725070E-002  0.76234377499999995        3.2897143775218188E-010   1.3482899243643548E-016
 chl          42   3.3088512759156579E-005   8.7189766979491989E-004   3.7949995630725070E-002
 chl2c          43   2.1185090152268007E-002   2.1185090152268007E-002  0.29539925000000000        3.2897143775218188E-010   1.6425019845494659E-016
 chl          43   1.8471230738157781E-005   8.7189766979491989E-004   2.1185090152268007E-002
 chl2c          44   3.7536352708156646E-002   3.7536352708156646E-002  0.62417262500000004        3.2897143775218188E-010   1.1517641476762178E-016
 chl          44   3.2727858458842010E-005   8.7189766979491989E-004   3.7536352708156646E-002
 chl2c          45  0.37661479776133783        4.6544927192009838E-002  0.37662252499999999        1.1817171732958406E-010   1.0845832576425832E-006
 chl          45   3.2836956457839544E-004   8.7189766979491989E-004  0.37661479776133783     
 chl2c          46  0.51874730833915583        3.7083195475449568E-002  0.51876034999999998        3.2897143775218188E-010   3.3940475791838154E-006
 chl          46   4.5229456935329677E-004   8.7189766979491989E-004  0.51874730833915583     
 chl2c          47   3.7519784612651236E-002   3.7519784612651236E-002  0.61962282499999999        3.2897143775218188E-010   1.4710485700625756E-016
 chl          47   3.2713412774977905E-005   8.7189766979491989E-004   3.7519784612651236E-002
 chl2c          48   3.7823212136301673E-002   3.7823212136301673E-002  0.71424949999999998        3.2897143775218188E-010   1.4147050487003765E-016
 chl          48   3.2977970525800364E-005   8.7189766979491989E-004   3.7823212136301673E-002
 chl2c          49   3.7152990741888416E-002   3.7152990741888416E-002  0.53276120000000005        3.2897143775218188E-010   1.3165114241678496E-016
 chl          49   3.2393606053764743E-005   8.7189766979491989E-004   3.7152990741888416E-002
 chl2c          50  0.38131539349431570        2.1533072915600981E-002  0.38132569999999999        3.2897143775218188E-010   2.3205833085251171E-006
 chl          50   3.3246800304462682E-004   8.7189766979491989E-004  0.38131539349431570     
 chl2c          51   2.0700971146093840E-002   2.0700971146093840E-002  0.22275920000000002        3.2897143775218188E-010   1.7533610803984024E-016
 chl          51   1.8049128504771090E-005   8.7189766979491989E-004   2.0700971146093840E-002
 chl2c          52   3.7581825176985564E-002   3.7581825176985564E-002  0.63698869999999996        3.2897143775218188E-010   1.5656167766215383E-016
 chl          52   3.2767505798453766E-005   8.7189766979491989E-004   3.7581825176985564E-002
 chl2c          53   3.7925801262726190E-002   3.7925801262726190E-002  0.75269794999999995        3.2897143775218188E-010   1.4019683104699312E-016
 chl          53   3.3067417746076196E-005   8.7189766979491989E-004   3.7925801262726190E-002
 chl2c          54   3.7082433371327092E-002   3.7082433371327092E-002  0.51861124999999997        3.2897143775218188E-010   1.1499130093145773E-016
 chl          54   3.2332087246785468E-005   8.7189766979491989E-004   3.7082433371327092E-002
 chl2c          55  0.57806737578965595        3.7357235588660491E-002  0.57808280000000001        3.2897143775218188E-010   3.5636395135373320E-006
 chl          55   5.0401559793546527E-004   8.7189766979491989E-004  0.57806737578965595     
 chl2c          56   3.7507394187257688E-002   3.7507394187257688E-002  0.61626080000000005        3.2897143775218188E-010   1.5697568650069408E-016
 chl          56   3.2702609591949503E-005   8.7189766979491989E-004   3.7507394187257688E-002
 chl2c          57  0.68161092215978192        3.7727617852646313E-002  0.68163462500000005        3.2897143775218188E-010   3.2241555958992152E-006
 chl          57   5.9429497473788035E-004   8.7189766979491989E-004  0.68161092215978192     
 chl2c          58  0.69411376439967343        3.7765358178394853E-002  0.69416802499999997        3.2897143775218188E-010   1.4606254537235039E-006
 chl          58   6.0519617375265529E-004   8.7189766979491989E-004  0.69411376439967343     
 chl2c          59   3.7173699120809672E-002   3.7173699120809672E-002  0.53705127500000005        3.2897143775218188E-010   1.5968136886976811E-016
 chl          59   3.2411661641091414E-005   8.7189766979491989E-004   3.7173699120809672E-002
 chl2c          60  0.64443001005314260        3.7607757740906807E-002  0.64452155000000000        3.2897143775218188E-010   7.4632972768859194E-007
 chl          60   5.6187702411125186E-004   8.7189766979491989E-004  0.64443001005314260     
 chl2c          61   3.7805373434125003E-002   3.7805373434125003E-002  0.70794139999999994        3.2897143775218188E-010   1.3720849535424404E-016
 chl          61   3.2962417002940358E-005   8.7189766979491989E-004   3.7805373434125003E-002
 chl2c          62   3.7956103087269030E-002   3.7956103087269030E-002  0.76481592499999995        3.2897143775218188E-010   1.1196837018229971E-016
 chl          62   3.3093837836285630E-005   8.7189766979491989E-004   3.7956103087269030E-002
 chl2c          63  0.72593830993610919        3.7855601011927406E-002  0.72597904999999996        3.2897143775218188E-010   2.1277975068823566E-006
 chl          63   6.3294392084815593E-004   8.7189766979491989E-004  0.72593830993610919     
 chl2c          64   2.5708982294816416E-002   2.5708982294816416E-002  0.48435739999999999        9.0631335241073702E-010   9.3544722287872468E-017
 chl          64   2.2415601755649285E-005   8.7189766979491989E-004   2.5708982294816416E-002
 chl2c          65   3.7953597170552002E-002   3.7953597170552002E-002  0.76379975000000000        3.2897143775218188E-010   1.2372158755136633E-016
 chl          65   3.3091652933339352E-005   8.7189766979491989E-004   3.7953597170552002E-002
 chl2c          66   3.1840477731474713E-002   3.1840477731474713E-002  0.35213202499999996        2.5409023518823675E-010   7.7149381680467955E-017
 chl          66   2.7761638339229840E-005   8.7189766979491989E-004   3.1840477731474713E-002
 chl2c          67   3.7937587124568600E-002   3.7937587124568600E-002  0.75736760000000003        3.2897143775218188E-010   1.3090210216189403E-016
 chl          67   3.3077693811553120E-005   8.7189766979491989E-004   3.7937587124568600E-002
 chl2c          68  0.72583185544273154        3.7855407263856986E-002  0.72590779999999999        3.2897143775218188E-010   1.1411665425311826E-006
 chl          68   6.3285110342344074E-004   8.7189766979491989E-004  0.72583185544273154     
 chl2c          69  0.45522940503953008        2.1732330561541505E-002  0.45524217500000003        3.2897143775218188E-010   2.6693863846614078E-006
 chl          69   3.9691345747609405E-004   8.7189766979491989E-004  0.45522940503953008     
 chl2c          70   3.2658010878182209E-002   3.2658010878182209E-002  0.48694062500000002        2.5409023518823675E-010   9.7052338999834608E-017
 chl          70   2.8474443584824212E-005   8.7189766979491989E-004   3.2658010878182209E-002
 chl2c          71   4.3481058864416305E-002   4.3481058864416305E-002  0.23986107500000001        1.1817171732958406E-010   8.4872654481133015E-017
 chl          71   3.7911033904100322E-005   8.7189766979491989E-004   4.3481058864416305E-002
 chl2c          72   3.7549776402781669E-002   3.7549776402781669E-002  0.62790522500000001        3.2897143775218188E-010   1.5747126183288806E-016
 chl          72   3.2739562546905610E-005   8.7189766979491989E-004   3.7549776402781669E-002
 chl2c          73   3.1852614277819484E-002   3.1852614277819484E-002  0.35362212500000001        2.5409023518823675E-010   9.3545441173589213E-017
 chl          73   2.7772220165707203E-005   8.7189766979491989E-004   3.1852614277819484E-002
 chl2c          74  0.64711570277859309        3.7616827685877569E-002  0.64719590000000005        3.2897143775218188E-010   8.5898696095243156E-007
 chl          74   5.6421867334035733E-004   8.7189766979491989E-004  0.64711570277859309     
 chl2c          75   3.7826830779512356E-002   3.7826830779512356E-002  0.71554212500000003        3.2897143775218188E-010   1.2414208608560642E-016
 chl          75   3.2981125612383574E-005   8.7189766979491989E-004   3.7826830779512356E-002
 chl2c          76  0.55512403560580459        3.7257729557919804E-002  0.55513977500000000        3.2897143775218188E-010   3.2205686532134881E-006
 chl          76   4.8401135309185318E-004   8.7189766979491989E-004  0.55512403560580459     
 chl2c          77  0.52942312142481873        3.7138172437479272E-002  0.52973029999999999        3.2897143775218188E-010   1.5017408506147074E-007
 chl          77   4.6160278590585236E-004   8.7189766979491989E-004  0.52942312142481873     
 chl2c          78  0.45116931296903617        4.7515248899399322E-002  0.45117492500000000        1.1817171732958406E-010   2.1431274566517244E-006
 chl          78   3.9337347266067755E-004   8.7189766979491989E-004  0.45116931296903617     
 prod   4.0704234685134864E-007   1.1214978292397068E-003   10.000000000000000     
 dcdom   8.5865489557013751E-013  -2.9512636963786617E-010
 chl2c           1   3.7477407714772232E-002   3.7477407714772232E-002  0.60826437499999997        3.7747193821054998E-011   1.3836511018794151E-016
 chl           1   3.2314085335963674E-005   8.6222840122495011E-004   3.7477407714772232E-002
 chl2c           2  0.48302179706854809        3.2640259920490348E-002  0.48302390000000001        2.9866546428598948E-011   1.6567815284918880E-006
 chl           2   4.1647511184321652E-004   8.6222840122495011E-004  0.48302179706854809     
 chl2c           3   3.7922212503796585E-002   3.7922212503796585E-002  0.75128689999999998        3.7747193821054998E-011   1.4925837407571688E-016
 chl           3   3.2697608658061339E-005   8.6222840122495011E-004   3.7922212503796585E-002
 chl2c           4  0.77318377514842751        3.7976509103863923E-002  0.77318742499999993        3.7747193821054998E-011   3.0913415138347235E-006
 chl           4   6.6666101029929997E-004   8.6222840122495011E-004  0.77318377514842751     
 chl2c           5  0.48489186085067504        2.5710500362372445E-002  0.48489679999999996        1.0429061766906094E-010   2.4823173341180318E-006
 chl           5   4.1808753394826850E-004   8.6222840122495011E-004  0.48489186085067504     
 chl2c           6   3.1261039902252048E-002   3.1261039902252048E-002  0.29222855000000003        2.9866546428598948E-011   1.0498791751340054E-016
 chl           6   2.6954156455548156E-005   8.6222840122495011E-004   3.1261039902252048E-002
 chl2c           7  0.22770717730957840        4.3064391842467263E-002  0.22770740000000000        1.3933076446060091E-011   1.6220690994220299E-006
 chl           7   1.9633559543908404E-004   8.6222840122495011E-004  0.22770717730957840     
 chl2c           8   4.7969800906495587E-002   4.7969800906495587E-002  0.49578364999999996        1.3933076446060091E-011   7.5803426977117163E-017
 chl           8   4.1360924742686855E-005   8.6222840122495011E-004   4.7969800906495587E-002
 chl2c           9  0.28699868278651847        2.4803669054600401E-002  0.28700202499999999        1.0429061766906094E-010   1.2851266262656579E-006
 chl           9   2.4745841541268644E-004   8.6222840122495011E-004  0.28699868278651847     
 chl2c          10  0.39094403414641021        2.5387016219684602E-002  0.39094662499999999        1.0429061766906094E-010   3.0761281982802236E-006
 chl          10   3.3708304953049159E-004   8.6222840122495011E-004  0.39094403414641021     
 chl2c          11   2.1820572217820047E-002   2.1820572217820047E-002  0.49737575000000001        3.7747193821054998E-011   1.3786585887333731E-016
 chl          11   1.8814317097184542E-005   8.6222840122495011E-004   2.1820572217820047E-002
 chl2c          12   4.5290941298723353E-002   4.5290941298723353E-002  0.30768942500000002        1.3933076446060091E-011   7.5161738199858874E-017
 chl          12   3.9051135905971301E-005   8.6222840122495011E-004   4.5290941298723353E-002
 chl2c          13   3.7935816987997487E-002   3.7935816987997487E-002  0.75666275000000005        3.7747193821054998E-011   1.2403927560477890E-016
 chl          13   3.2709338830723375E-005   8.6222840122495011E-004   3.7935816987997487E-002
 chl2c          14   4.6856526101924839E-002   4.6856526101924839E-002  0.39804095000000000        1.3933076446060091E-011   8.3277914277997472E-017
 chl          14   4.0401027587817801E-005   8.6222840122495011E-004   4.6856526101924839E-002
 chl2c          15  0.25607227587040354        2.0954299823745293E-002  0.25607262500000000        3.7747193821054998E-011   3.5448162163500718E-006
 chl          15   2.2079278902177241E-004   8.6222840122495011E-004  0.25607227587040354     
 chl2c          16   3.7823443882273475E-002   3.7823443882273475E-002  0.71433214999999994        3.7747193821054998E-011   1.5540822846880222E-016
 chl          16   3.2612447547434278E-005   8.6222840122495011E-004   3.7823443882273475E-002
 chl2c          17   3.7542254757581245E-002   3.7542254757581245E-002  0.62580860000000005        3.7747193821054998E-011   1.5533012610960268E-016
 chl          17   3.2369998298009052E-005   8.6222840122495011E-004   3.7542254757581245E-002
 chl2c          18   2.5694475239060960E-002   2.5694475239060960E-002  0.47925950000000000        1.0429061766906094E-010   1.4396253129772901E-016
 chl          18   2.2154506305689599E-005   8.6222840122495011E-004   2.5694475239060960E-002
 chl2c          19  0.63366686281666074        3.7570220750293731E-002  0.63367130000000005        3.7747193821054998E-011   1.7079389233135301E-006
 chl          19   5.4636556603563920E-004   8.6222840122495011E-004  0.63366686281666074     
 chl2c          20   3.7020645196759419E-002   3.7020645196759419E-002  0.50678202500000002        3.7747193821054998E-011   1.3663026926716670E-016
 chl          20   3.1920251720318003E-005   8.6222840122495011E-004   3.7020645196759419E-002
 chl2c          21  0.71972168617918331        3.7838475073783531E-002  0.71973185000000006        3.7747193821054998E-011   9.6190678013931266E-007
 chl          21   6.2056447880120245E-004   8.6222840122495011E-004  0.71972168617918331     
 chl2c          22  0.64616663050188694        3.7613353106285476E-002  0.64616892500000001        3.7747193821054998E-011   3.4344529039719375E-006
 chl          22   5.5714322074255506E-004   8.6222840122495011E-004  0.64616663050188694     
 chl2c          23   3.2286562315070731E-002   3.2286562315070731E-002  0.41564179999999995        2.9866546428598948E-011   9.9224008666899327E-017
 chl          23   2.7838391005973161E-005   8.6222840122495011E-004   3.2286562315070731E-002
 chl2c          24   3.7348402796863071E-002   3.7348402796863071E-002  0.57597492500000003        3.7747193821054998E-011   1.1084134134358158E-016
 chl          24   3.2202853631844702E-005   8.6222840122495011E-004   3.7348402796863071E-002
 chl2c          25   4.5426679235459781E-002   4.5426679235459781E-002  0.31406487500000002        1.3933076446060091E-011   7.8960711773153990E-017
 chl          25   3.9168173010149123E-005   8.6222840122495011E-004   4.5426679235459781E-002
 chl2c          26   4.7955660680174553E-002   4.7955660680174553E-002  0.49427735000000000        1.3933076446060091E-011   7.2621553719732542E-017
 chl          26   4.1348732637953110E-005   8.6222840122495011E-004   4.7955660680174553E-002
 chl2c          27   4.5333133499525620E-002   4.5333133499525620E-002  0.30964730000000001        1.3933076446060091E-011   8.2648893569114317E-017
 chl          27   3.9087515219813204E-005   8.6222840122495011E-004   4.5333133499525620E-002
 chl2c          28   3.1209236063453518E-002   3.1209236063453518E-002  0.28776342500000002        2.9866546428598948E-011   8.2200338219281991E-017
 chl          28   2.6909489714443584E-005   8.6222840122495011E-004   3.1209236063453518E-002
 chl2c          29  0.68676004668212576        3.7743217595736761E-002  0.68676297499999994        3.7747193821054998E-011   3.0398233862214962E-006
 chl          29   5.9214401707590142E-004   8.6222840122495011E-004  0.68676004668212576     
 chl2c          30   2.5380056985171612E-002   2.5380056985171612E-002  0.38930277499999999        1.0429061766906094E-010   1.5794396157081542E-016
 chl          30   2.1883405957322646E-005   8.6222840122495011E-004   2.5380056985171612E-002
 chl2c          31  0.63559132682772368        3.7576959810037038E-002  0.63559385000000002        3.7747193821054998E-011   3.0217979336629376E-006
 chl          31   5.4802489356311297E-004   8.6222840122495011E-004  0.63559132682772368     
 chl2c          32  0.24722636039842483        2.0893126428578448E-002  0.24722667500000001        3.7747193821054998E-011   3.6667718279504279E-006
 chl          32   2.1316558946699716E-004   8.6222840122495011E-004  0.24722636039842483     
 chl2c          33  0.60342791083232661        3.7458922634011876E-002  0.60343137499999999        3.7747193821054998E-011   1.9838510063471519E-006
 chl          33   5.2029268281146871E-004   8.6222840122495011E-004  0.60342791083232661     
 chl2c          34  0.38240663216233040        2.5350269098008315E-002  0.38241020000000003        1.0429061766906094E-010   2.1372978103612767E-006
 chl          34   3.2972185906714370E-004   8.6222840122495011E-004  0.38240663216233040     
 chl2c          35   2.5740370148566064E-002   2.5740370148566064E-002  0.49574644999999995        1.0429061766906094E-010   1.1375575551068653E-016
 chl          35   2.2194078200136550E-005   8.6222840122495011E-004   2.5740370148566064E-002
 chl2c          36   3.7770393924465726E-002   3.7770393924465726E-002  0.69587337500000002        3.7747193821054998E-011   1.1813863401157194E-016
 chl          36   3.2566706367128654E-005   8.6222840122495011E-004   3.7770393924465726E-002
 chl2c          37   2.1353674699533250E-002   2.1353674699533250E-002  0.33194060000000003        3.7747193821054998E-011   1.0409516909336511E-016
 chl          37   1.8411744796456223E-005   8.6222840122495011E-004   2.1353674699533250E-002
 chl2c          38   2.1543295686358745E-002   2.1543295686358745E-002  0.38455722500000000        3.7747193821054998E-011   1.6125080391843209E-016
 chl          38   1.8575241396765466E-005   8.6222840122495011E-004   2.1543295686358745E-002
 chl2c          39   2.5670077108751441E-002   2.5670077108751441E-002  0.47091117500000002        1.0429061766906094E-010   1.2956717663631990E-016
 chl          39   2.2133469544799946E-005   8.6222840122495011E-004   2.5670077108751441E-002
 chl2c          40   3.7687445774703773E-002   3.7687445774703773E-002  0.66875547499999999        3.7747193821054998E-011   1.5570978664658479E-016
 chl          40   3.2495186116574836E-005   8.6222840122495011E-004   3.7687445774703773E-002
 chl2c          41   2.5582381488167241E-002   2.5582381488167241E-002  0.44304987499999998        1.0429061766906094E-010   9.3676016714325393E-017
 chl          41   2.2057855890069198E-005   8.6222840122495011E-004   2.5582381488167241E-002
 chl2c          42   3.7949995630725070E-002   3.7949995630725070E-002  0.76234377499999995        3.7747193821054998E-011   1.3123695712268945E-016
 chl          42   3.2721564059173922E-005   8.6222840122495011E-004   3.7949995630725070E-002
 chl2c          43   2.1185090152268007E-002   2.1185090152268007E-002  0.29539925000000000        3.7747193821054998E-011   1.6055371371545833E-016
 chl          43   1.8266386411796479E-005   8.6222840122495011E-004   2.1185090152268007E-002
 chl2c          44   3.7536352708156646E-002   3.7536352708156646E-002  0.62417262500000004        3.7747193821054998E-011   1.1204394856165551E-016
 chl          44   3.2364909383369731E-005   8.6222840122495011E-004   3.7536352708156646E-002
 chl2c          45  0.37662123414554388        4.6544927192009838E-002  0.37662252499999999        1.3933076446060091E-011   7.6550994799047871E-007
 chl          45   3.2473352458467990E-004   8.6222840122495011E-004  0.37662123414554388     
 chl2c          46  0.51875876258709597        3.7083195475449568E-002  0.51876034999999998        3.7747193821054998E-011   3.1996095864667936E-006
 chl          46   4.4728853848690524E-004   8.6222840122495011E-004  0.51875876258709597     
 chl2c          47   3.7519784612651236E-002   3.7519784612651236E-002  0.61962282499999999        3.7747193821054998E-011   1.4323645367462617E-016
 chl          47   3.2350623900870759E-005   8.6222840122495011E-004   3.7519784612651236E-002
 chl2c          48   3.7823212136301673E-002   3.7823212136301673E-002  0.71424949999999998        3.7747193821054998E-011   1.3772793361811461E-016
 chl          48   3.2612247729475522E-005   8.6222840122495011E-004   3.7823212136301673E-002
 chl2c          49   3.7152990741888416E-002   3.7152990741888416E-002  0.53276120000000005        3.7747193821054998E-011   1.2813198546681245E-016
 chl          49   3.2034363808103819E-005   8.6222840122495011E-004   3.7152990741888416E-002
 chl2c          50  0.38132457871045505        2.1533072915600981E-002  0.38132569999999999        3.7747193821054998E-011   2.4475286149443665E-006
 chl          50   3.2878888184929329E-004   8.6222840122495011E-004  0.38132457871045505     
 chl2c          51   2.0700971146093840E-002   2.0700971146093840E-002  0.22275920000000002        3.7747193821054998E-011   1.7147822542273367E-016
 chl          51   1.7848965255100315E-005   8.6222840122495011E-004   2.0700971146093840E-002
 chl2c          52   3.7581825176985564E-002   3.7581825176985564E-002  0.63698869999999996        3.7747193821054998E-011   1.5248592384277579E-016
 chl          52   3.2404117037467842E-005   8.6222840122495011E-004   3.7581825176985564E-002
 chl2c          53   3.7925801262726190E-002   3.7925801262726190E-002  0.75269794999999995        3.7747193821054998E-011   1.3648294304938518E-016
 chl          53   3.2700702987935600E-005   8.6222840122495011E-004   3.7925801262726190E-002
 chl2c          54   3.7082433371327092E-002   3.7082433371327092E-002  0.51861124999999997        3.7747193821054998E-011   1.1186326459333324E-016
 chl          54   3.1973527239290096E-005   8.6222840122495011E-004   3.7082433371327092E-002
 chl2c          55  0.57808095754242605        3.7357235588660491E-002  0.57808280000000001        3.7747193821054998E-011   3.4232285110902445E-006
 chl          55   4.9843781980039425E-004   8.6222840122495011E-004  0.57808095754242605     
 chl2c          56   3.7507394187257688E-002   3.7507394187257688E-002  0.61626080000000005        3.7747193821054998E-011   1.5289096488812868E-016
 chl          56   3.2339940524193185E-005   8.6222840122495011E-004   3.7507394187257688E-002
 chl2c          57  0.68163157319785650        3.7727617852646313E-002  0.68163462500000005        3.7747193821054998E-011   2.8734235290152678E-006
 chl          57   5.8772210158283540E-004   8.6222840122495011E-004  0.68163157319785650     
 chl2c          58  0.69416283161795544        3.7765358178394853E-002  0.69416802499999997        3.7747193821054998E-011   1.7511782902613758E-006
 chl          58   5.9852690849573399E-004   8.6222840122495011E-004  0.69416283161795544     
 chl2c          59   3.7173699120809672E-002   3.7173699120809672E-002  0.53705127500000005        3.7747193821054998E-011   1.5553826582053863E-016
 chl          59   3.2052219160553059E-005   8.6222840122495011E-004   3.7173699120809672E-002
 chl2c          60  0.64451351157699877        3.7607757740906807E-002  0.64452155000000000        3.7747193821054998E-011   9.7533383072698626E-007
 chl          60   5.5571785465491407E-004   8.6222840122495011E-004  0.64451351157699877     
 chl2c          61   3.7805373434125003E-002   3.7805373434125003E-002  0.70794139999999994        3.7747193821054998E-011   1.3356225073460619E-016
 chl          61   3.2596866693817806E-005   8.6222840122495011E-004   3.7805373434125003E-002
 chl2c          62   3.7956103087269030E-002   3.7956103087269030E-002  0.76481592499999995        3.7747193821054998E-011   1.0891294243506314E-016
 chl          62   3.2726830081665369E-005   8.6222840122495011E-004   3.7956103087269030E-002
 chl2c          63  0.72597449589601881        3.7855601011927406E-002  0.72597904999999996        3.7747193821054998E-011   2.1842240518769030E-006
 chl          63   6.2595582892651346E-004   8.6222840122495011E-004  0.72597449589601881     
 chl2c          64   2.5708982294816416E-002   2.5708982294816416E-002  0.48435739999999999        1.0429061766906094E-010   9.1128058447059422E-017
 chl          64   2.2167014701180106E-005   8.6222840122495011E-004   2.5708982294816416E-002
 chl2c          65   3.7953597170552002E-002   3.7953597170552002E-002  0.76379975000000000        3.7747193821054998E-011   1.2038668929935975E-016
 chl          65   3.2724669409100844E-005   8.6222840122495011E-004   3.7953597170552002E-002
 chl2c          66   3.1840477731474713E-002   3.1840477731474713E-002  0.35213202499999996        2.9866546428598948E-011   7.8558877863967325E-017
 chl          66   2.7453764208648067E-005   8.6222840122495011E-004   3.1840477731474713E-002
 chl2c          67   3.7937587124568600E-002   3.7937587124568600E-002  0.75736760000000003        3.7747193821054998E-011   1.2740020341092078E-016
 chl          67   3.2710865092749033E-005   8.6222840122495011E-004   3.7937587124568600E-002
 chl2c          68  0.72590100787004952        3.7855407263856986E-002  0.72590779999999999        3.7747193821054998E-011   1.4642241022022165E-006
 chl          68   6.2589246546337278E-004   8.6222840122495011E-004  0.72590100787004952     
 chl2c          69  0.45524063918290697        2.1732330561541505E-002  0.45524217500000003        3.7747193821054998E-011   2.5468225860394792E-006
 chl          69   3.9252140849530226E-004   8.6222840122495011E-004  0.45524063918290697     
 chl2c          70   3.2658010878182209E-002   3.2658010878182209E-002  0.48694062500000002        2.9866546428598948E-011   9.8680017257776381E-017
 chl          70   2.8158664506682075E-005   8.6222840122495011E-004   3.2658010878182209E-002
 chl2c          71   4.3481058864416305E-002   4.3481058864416305E-002  0.23986107500000001        1.3933076446060091E-011   8.6397533287799662E-017
 chl          71   3.7490603868233617E-005   8.6222840122495011E-004   4.3481058864416305E-002
 chl2c          72   3.7549776402781669E-002   3.7549776402781669E-002  0.62790522500000001        3.7747193821054998E-011   1.5337581770194112E-016
 chl          72   3.2376483674124796E-005   8.6222840122495011E-004   3.7549776402781669E-002
 chl2c          73   3.1852614277819484E-002   3.1852614277819484E-002  0.35362212500000001        2.9866546428598948E-011   9.5194328666766925E-017
 chl          73   2.7464228683599313E-005   8.6222840122495011E-004   3.1852614277819484E-002
 chl2c          74  0.64718895685892974        3.7616827685877569E-002  0.64719590000000005        3.7747193821054998E-011   1.1385852193496684E-006
 chl          74   5.5802469956291818E-004   8.6222840122495011E-004  0.64718895685892974     
 chl2c          75   3.7826830779512356E-002   3.7826830779512356E-002  0.71554212500000003        3.7747193821054998E-011   1.2079733015879045E-016
 chl          75   3.2615367826425675E-005   8.6222840122495011E-004   3.7826830779512356E-002
 chl2c          76  0.55513788037276701        3.7257729557919804E-002  0.55513977500000000        3.7747193821054998E-011   3.0699698327312864E-006
 chl          76   4.7865564705321849E-004   8.6222840122495011E-004  0.55513788037276701     
 chl2c          77  0.52971454773506654        3.7138172437479272E-002  0.52973029999999999        3.7747193821054998E-011   3.3620826312454202E-007
 chl          77   4.5673492759920392E-004   8.6222840122495011E-004  0.52971454773506654     
 chl2c          78  0.45117420670172947        4.7515248899399322E-002  0.45117492500000000        1.3933076446060091E-011   1.9742467045423587E-006
 chl          78   3.8901521491836738E-004   8.6222840122495011E-004  0.45117420670172947     
 prod   4.1571507582179560E-007   1.3156219800734508E-004   10.000000000000000     
 dcdom   9.5388094444423325E-013  -2.9420548320861078E-010
 chl2c           1   3.7477407714772232E-002   3.7477407714772232E-002  0.60826437499999997        4.5067577970320332E-012   1.4421501259007891E-016
 chl           1   2.9012110406520521E-005   7.7412265616986630E-004   3.7477407714772232E-002
 chl2c           2  0.48302367191700163        3.2640259920490348E-002  0.48302390000000001        3.6219788948839324E-012   1.8525077836382679E-006
 chl           2   3.7391956789731138E-004   7.7412265616986630E-004  0.48302367191700163     
 chl2c           3   3.7922212503796585E-002   3.7922212503796585E-002  0.75128689999999998        4.5067577970320332E-012   1.5556660128627109E-016
 chl           3   2.9356443871277127E-005   7.7412265616986630E-004   3.7922212503796585E-002
 chl2c           4  0.77318702060634636        3.7976509103863923E-002  0.77318742499999993        4.5067577970320332E-012   3.3311886557099470E-006
 chl           4   5.9854159010785002E-004   7.7412265616986630E-004  0.77318702060634636     
 chl2c           5  0.48489620724499111        2.5710500362372445E-002  0.48489679999999996        1.2429686503159989E-011   2.4652050701006043E-006
 chl           5   3.7536913991918650E-004   7.7412265616986630E-004  0.48489620724499111     
 chl2c           6   3.1261039902252048E-002   3.1261039902252048E-002  0.29222855000000003        3.6219788948839324E-012   1.2591922261148836E-016
 chl           6   2.4199879243763534E-005   7.7412265616986630E-004   3.1261039902252048E-002
 chl2c           7  0.22770737692275994        4.3064391842467263E-002  0.22770740000000000        1.6947957305922914E-012   1.9039596612815842E-006
 chl           7   1.7627343945291984E-004   7.7412265616986630E-004  0.22770737692275994     
 chl2c           8  0.49578016171058181        4.7969800906495587E-002  0.49578364999999996        1.6947957305922914E-012   5.9711255159876459E-008
 chl           8   3.8379465565972141E-004   7.7412265616986630E-004  0.49578016171058181     
 chl2c           9  0.28700173380874378        2.4803669054600401E-002  0.28700202499999999        1.2429686503159989E-011   1.7580099585635537E-006
 chl           9   2.2217454450138165E-004   7.7412265616986630E-004  0.28700173380874378     
 chl2c          10  0.39094632053157863        2.5387016219684602E-002  0.39094662499999999        1.2429686503159989E-011   3.1197696039354519E-006
 chl          10   3.0264040406974160E-004   7.7412265616986630E-004  0.39094632053157863     
 chl2c          11   2.1820572217820047E-002   2.1820572217820047E-002  0.49737575000000001        4.5067577970320332E-012   1.4365522536631680E-016
 chl          11   1.6891799324405244E-005   7.7412265616986630E-004   2.1820572217820047E-002
 chl2c          12   4.5290941298723353E-002   4.5290941298723353E-002  0.30768942500000002        1.6947957305922914E-012   8.8552278036953534E-017
 chl          12   3.5060743778601215E-005   7.7412265616986630E-004   4.5290941298723353E-002
 chl2c          13   3.7935816987997487E-002   3.7935816987997487E-002  0.75666275000000005        4.5067577970320332E-012   1.2928526010820109E-016
 chl          13   2.9366975410722553E-005   7.7412265616986630E-004   3.7935816987997487E-002
 chl2c          14   4.6856526101924839E-002   4.6856526101924839E-002  0.39804095000000000        1.6947957305922914E-012   1.0048756383330772E-016
 chl          14   3.6272698444914725E-005   7.7412265616986630E-004   4.6856526101924839E-002
 chl2c          15  0.25607258407502215        2.0954299823745293E-002  0.25607262500000000        4.5067577970320332E-012   3.6105387253628822E-006
 chl          15   1.9823158895643754E-004   7.7412265616986630E-004  0.25607258407502215     
 chl2c          16   3.7823443882273475E-002   3.7823443882273475E-002  0.71433214999999994        4.5067577970320332E-012   1.6197481535334401E-016
 chl          16   2.9279984843637423E-005   7.7412265616986630E-004   3.7823443882273475E-002
 chl2c          17   3.7542254757581245E-002   3.7542254757581245E-002  0.62580860000000005        4.5067577970320332E-012   1.6189343374939726E-016
 chl          17   2.9062309971544594E-005   7.7412265616986630E-004   3.7542254757581245E-002
 chl2c          18   2.5694475239060960E-002   2.5694475239060960E-002  0.47925950000000000        1.2429686503159989E-011   1.5000093909447825E-016
 chl          18   1.9890675420952729E-005   7.7412265616986630E-004   2.5694475239060960E-002
 chl2c          19  0.63367083970668525        3.7570220750293731E-002  0.63367130000000005        4.5067577970320332E-012   1.9657456153957741E-006
 chl          19   4.9053895357112874E-004   7.7412265616986630E-004  0.63367083970668525     
 chl2c          20   3.7020645196759419E-002   3.7020645196759419E-002  0.50678202500000002        4.5067577970320332E-012   1.4240710449468251E-016
 chl          20   2.8658520192837603E-005   7.7412265616986630E-004   3.7020645196759419E-002
 chl2c          21  0.71973095470234838        3.7838475073783531E-002  0.71973185000000006        4.5067577970320332E-012   1.3037901060240835E-006
 chl          21   5.5716003838185565E-004   7.7412265616986630E-004  0.71973095470234838     
 chl2c          22  0.64616865822120129        3.7613353106285476E-002  0.64616892500000001        4.5067577970320332E-012   3.5267515673745576E-006
 chl          22   5.0021379803591481E-004   7.7412265616986630E-004  0.64616865822120129     
 chl2c          23   3.2286562315070731E-002   3.2286562315070731E-002  0.41564179999999995        3.6219788948839324E-012   1.1585794655880219E-016
 chl          23   2.4993759377936461E-005   7.7412265616986630E-004   3.2286562315070731E-002
 chl2c          24   3.7348402796863071E-002   3.7348402796863071E-002  0.57597492500000003        4.5067577970320332E-012   1.1552999213190653E-016
 chl          24   2.8912244776809706E-005   7.7412265616986630E-004   3.7348402796863071E-002
 chl2c          25   4.5426679235459781E-002   4.5426679235459781E-002  0.31406487500000002        1.6947957305922914E-012   9.2895972350608888E-017
 chl          25   3.5165821590730636E-005   7.7412265616986630E-004   4.5426679235459781E-002
 chl2c          26   4.7955660680174553E-002   4.7955660680174553E-002  0.49427735000000000        1.6947957305922914E-012   8.5640968108579794E-017
 chl          26   3.7123563424117539E-005   7.7412265616986630E-004   4.7955660680174553E-002
 chl2c          27   4.5333133499525620E-002   4.5333133499525620E-002  0.30964730000000001        1.6947957305922914E-012   9.9746316234412581E-017
 chl          27   3.5093405717155921E-005   7.7412265616986630E-004   4.5333133499525620E-002
 chl2c          28   3.1209236063453518E-002   3.1209236063453518E-002  0.28776342500000002        3.6219788948839324E-012   9.9217577442651235E-017
 chl          28   2.4159776718473020E-005   7.7412265616986630E-004   3.1209236063453518E-002
 chl2c          29  0.68676263102592716        3.7743217595736761E-002  0.68676297499999994        4.5067577970320332E-012   3.0897407694137144E-006
 chl          29   5.3163851208799654E-004   7.7412265616986630E-004  0.68676263102592716     
 chl2c          30   2.5380056985171612E-002   2.5380056985171612E-002  0.38930277499999999        1.2429686503159989E-011   1.6454912027124434E-016
 chl          30   1.9647277127103617E-005   7.7412265616986630E-004   2.5380056985171612E-002
 chl2c          31  0.63559354049948380        3.7576959810037038E-002  0.63559385000000002        4.5067577970320332E-012   2.9412504487603132E-006
 chl          31   4.9202735981586994E-004   7.7412265616986630E-004  0.63559354049948380     
 chl2c          32  0.24722663850988752        2.0893126428578448E-002  0.24722667500000001        4.5067577970320332E-012   3.7744146822706536E-006
 chl          32   1.9138374207922147E-004   7.7412265616986630E-004  0.24722663850988752     
 chl2c          33  0.60343100595102572        3.7458922634011876E-002  0.60343137499999999        4.5067577970320332E-012   2.2233392220194895E-006
 chl          33   4.6712961314206245E-004   7.7412265616986630E-004  0.60343100595102572     
 chl2c          34  0.38240973712848703        2.5350269098008315E-002  0.38241020000000003        1.2429686503159989E-011   1.9634874771701606E-006
 chl          34   2.9603204145112471E-004   7.7412265616986630E-004  0.38240973712848703     
 chl2c          35   2.5740370148566064E-002   2.5740370148566064E-002  0.49574644999999995        1.2429686503159989E-011   1.1855050193634511E-016
 chl          35   1.9926203710203496E-005   7.7412265616986630E-004   2.5740370148566064E-002
 chl2c          36   3.7770393924465726E-002   3.7770393924465726E-002  0.69587337500000002        4.5067577970320332E-012   1.2313554207572085E-016
 chl          36   2.9238917669389588E-005   7.7412265616986630E-004   3.7770393924465726E-002
 chl2c          37   2.1353674699533250E-002   2.1353674699533250E-002  0.33194060000000003        4.5067577970320332E-012   1.0848765248174622E-016
 chl          37   1.6530363377389952E-005   7.7412265616986630E-004   2.1353674699533250E-002
 chl2c          38   2.1543295686358745E-002   2.1543295686358745E-002  0.38455722500000000        4.5067577970320332E-012   1.6798905149209125E-016
 chl          38   1.6677153279376855E-005   7.7412265616986630E-004   2.1543295686358745E-002
 chl2c          39   2.5670077108751441E-002   2.5670077108751441E-002  0.47091117500000002        1.2429686503159989E-011   1.3501585981767606E-016
 chl          39   1.9871788275511949E-005   7.7412265616986630E-004   2.5670077108751441E-002
 chl2c          40   3.7687445774703773E-002   3.7687445774703773E-002  0.66875547499999999        4.5067577970320332E-012   1.6228903443601573E-016
 chl          40   2.9174705627371491E-005   7.7412265616986630E-004   3.7687445774703773E-002
 chl2c          41   2.5582381488167241E-002   2.5582381488167241E-002  0.44304987499999998        1.2429686503159989E-011   9.7632704989221869E-017
 chl          41   1.9803901108770843E-005   7.7412265616986630E-004   2.5582381488167241E-002
 chl2c          42   3.7949995630725070E-002   3.7949995630725070E-002  0.76234377499999995        4.5067577970320332E-012   1.3678651814050751E-016
 chl          42   2.9377951419291712E-005   7.7412265616986630E-004   3.7949995630725070E-002
 chl2c          43   2.1185090152268007E-002   2.1185090152268007E-002  0.29539925000000000        4.5067577970320332E-012   1.6726393781079353E-016
 chl          43   1.6399858259871786E-005   7.7412265616986630E-004   2.1185090152268007E-002
 chl2c          44   3.7536352708156646E-002   3.7536352708156646E-002  0.62417262500000004        4.5067577970320332E-012   1.1678341655934662E-016
 chl          44   2.9057741061367178E-005   7.7412265616986630E-004   3.7536352708156646E-002
 chl2c          45  0.37662229662179331        4.6544927192009838E-002  0.37662252499999999        1.6947957305922914E-012   5.2631412464532310E-007
 chl          45   2.9155185263365788E-004   7.7412265616986630E-004  0.37662229662179331     
 chl2c          46  0.51876016077897358        3.7083195475449568E-002  0.51876034999999998        4.5067577970320332E-012   3.2047799875568121E-006
 chl          46   4.0158399357732594E-004   7.7412265616986630E-004  0.51876016077897358     
 chl2c          47   3.7519784612651236E-002   3.7519784612651236E-002  0.61962282499999999        4.5067577970320332E-012   1.4929141741171776E-016
 chl          47   2.9044915323266853E-005   7.7412265616986630E-004   3.7519784612651236E-002
 chl2c          48   3.7823212136301673E-002   3.7823212136301673E-002  0.71424949999999998        4.5067577970320332E-012   1.4355100200892753E-016
 chl          48   2.9279805443830174E-005   7.7412265616986630E-004   3.7823212136301673E-002
 chl2c          49   3.7152990741888416E-002   3.7152990741888416E-002  0.53276120000000005        4.5067577970320332E-012   1.3355062380813560E-016
 chl          49   2.8760971877765110E-005   7.7412265616986630E-004   3.7152990741888416E-002
 chl2c          50  0.38132557688602731        2.1533072915600981E-002  0.38132569999999999        4.5067577970320332E-012   2.6614535426321315E-006
 chl          50   2.9519276844451804E-004   7.7412265616986630E-004  0.38132557688602731     
 chl2c          51   2.0700971146093840E-002   2.0700971146093840E-002  0.22275920000000002        4.5067577970320332E-012   1.7862558232369719E-016
 chl          51   1.6025090768909926E-005   7.7412265616986630E-004   2.0700971146093840E-002
 chl2c          52   3.7581825176985564E-002   3.7581825176985564E-002  0.63698869999999996        4.5067577970320332E-012   1.5892977984360957E-016
 chl          52   2.9092942329719622E-005   7.7412265616986630E-004   3.7581825176985564E-002
 chl2c          53   3.7925801262726190E-002   3.7925801262726190E-002  0.75269794999999995        4.5067577970320332E-012   1.4225357236631075E-016
 chl          53   2.9359222010872066E-005   7.7412265616986630E-004   3.7925801262726190E-002
 chl2c          54   3.7082433371327092E-002   3.7082433371327092E-002  0.51861124999999997        4.5067577970320332E-012   1.1659509801508097E-016
 chl          54   2.8706351818653819E-005   7.7412265616986630E-004   3.7082433371327092E-002
 chl2c          55  0.57808258520701927        3.7357235588660491E-002  0.57808280000000001        4.5067577970320332E-012   3.5058559872351582E-006
 chl          55   4.4750682634600082E-004   7.7412265616986630E-004  0.57808258520701927     
 chl2c          56   3.7507394187257688E-002   3.7507394187257688E-002  0.61626080000000005        4.5067577970320332E-012   1.5935183586936626E-016
 chl          56   2.9035323614250125E-005   7.7412265616986630E-004   3.7507394187257688E-002
 chl2c          57  0.68163423355826902        3.7727617852646313E-002  0.68163462500000005        4.5067577970320332E-012   2.6746695700287326E-006
 chl          57   5.2766850341843825E-004   7.7412265616986630E-004  0.68163423355826902     
 chl2c          58  0.69416751621352124        3.7765358178394853E-002  0.69416802499999997        4.5067577970320332E-012   2.1341628414530996E-006
 chl          58   5.3737080147804974E-004   7.7412265616986630E-004  0.69416751621352124     
 chl2c          59   3.7173699120809672E-002   3.7173699120809672E-002  0.53705127500000005        4.5067577970320332E-012   1.6211031240792386E-016
 chl          59   2.8777002703060607E-005   7.7412265616986630E-004   3.7173699120809672E-002
 chl2c          60  0.64452081214145907        3.7607757740906807E-002  0.64452155000000000        4.5067577970320332E-012   1.2686315356290187E-006
 chl          60   4.9893816305170569E-004   7.7412265616986630E-004  0.64452081214145907     
 chl2c          61   3.7805373434125003E-002   3.7805373434125003E-002  0.70794139999999994        4.5067577970320332E-012   1.3920982163341365E-016
 chl          61   2.9265996100318547E-005   7.7412265616986630E-004   3.7805373434125003E-002
 chl2c          62   3.7956103087269030E-002   3.7956103087269030E-002  0.76481592499999995        4.5067577970320332E-012   1.1352009484930772E-016
 chl          62   2.9382679339773963E-005   7.7412265616986630E-004   3.7956103087269030E-002
 chl2c          63  0.72597854544765095        3.7855601011927406E-002  0.72597904999999996        4.5067577970320332E-012   2.3538341811679675E-006
 chl          63   5.6199643992427154E-004   7.7412265616986630E-004  0.72597854544765095     
 chl2c          64   2.5708982294816416E-002   2.5708982294816416E-002  0.48435739999999999        1.2429686503159989E-011   9.4977903523475953E-017
 chl          64   1.9901905661487348E-005   7.7412265616986630E-004   2.5708982294816416E-002
 chl2c          65   3.7953597170552002E-002   3.7953597170552002E-002  0.76379975000000000        4.5067577970320332E-012   1.2547851216149561E-016
 chl          65   2.9380739452868837E-005   7.7412265616986630E-004   3.7953597170552002E-002
 chl2c          66   3.1840477731474713E-002   3.1840477731474713E-002  0.35213202499999996        3.6219788948839324E-012   9.2437104424294878E-017
 chl          66   2.4648435195206683E-005   7.7412265616986630E-004   3.1840477731474713E-002
 chl2c          67   3.7937587124568600E-002   3.7937587124568600E-002  0.75736760000000003        4.5067577970320332E-012   1.3278797777210882E-016
 chl          67   2.9368345713546766E-005   7.7412265616986630E-004   3.7937587124568600E-002
 chl2c          68  0.72590716760499352        3.7855407263856986E-002  0.72590779999999999        4.5067577970320332E-012   1.8776227501525146E-006
 chl          68   5.6194118471912188E-004   7.7412265616986630E-004  0.72590716760499352     
 chl2c          69  0.45524199473740468        2.1732330561541505E-002  0.45524217500000003        4.5067577970320332E-012   2.5906778428052419E-006
 chl          69   3.5241314216618799E-004   7.7412265616986630E-004  0.45524199473740468     
 chl2c          70   3.2658010878182209E-002   3.2658010878182209E-002  0.48694062500000002        3.6219788948839324E-012   1.1855994301541532E-016
 chl          70   2.5281306126242798E-005   7.7412265616986630E-004   3.2658010878182209E-002
 chl2c          71   4.3481058864416305E-002   4.3481058864416305E-002  0.23986107500000001        1.6947957305922914E-012   1.0136352230845410E-016
 chl          71   3.3659672781200262E-005   7.7412265616986630E-004   4.3481058864416305E-002
 chl2c          72   3.7549776402781669E-002   3.7549776402781669E-002  0.62790522500000001        4.5067577970320332E-012   1.5985705468837323E-016
 chl          72   2.9068132647505912E-005   7.7412265616986630E-004   3.7549776402781669E-002
 chl2c          73   3.1852614277819484E-002   3.1852614277819484E-002  0.35362212500000001        3.6219788948839324E-012   1.1131913056184329E-016
 chl          73   2.4657830370699827E-005   7.7412265616986630E-004   3.1852614277819484E-002
 chl2c          74  0.64719526873054600        3.7616827685877569E-002  0.64719590000000005        4.5067577970320332E-012   1.4951698779032573E-006
 chl          74   5.0100852049026064E-004   7.7412265616986630E-004  0.64719526873054600     
 chl2c          75   3.7826830779512356E-002   3.7826830779512356E-002  0.71554212500000003        4.5067577970320332E-012   1.2590648796216309E-016
 chl          75   2.9282606717524160E-005   7.7412265616986630E-004   3.7826830779512356E-002
 chl2c          76  0.55513955331760190        3.7257729557919804E-002  0.55513977500000000        4.5067577970320332E-012   3.1326186476827880E-006
 chl          76   4.2974610555917512E-004   7.7412265616986630E-004  0.55513955331760190     
 chl2c          77  0.52972920218360298        3.7138172437479272E-002  0.52973029999999999        4.5067577970320332E-012   5.7598774008064851E-007
 chl          77   4.1007537704511489E-004   7.7412265616986630E-004  0.52972920218360298     
 chl2c          78  0.45117484131411495        4.7515248899399322E-002  0.45117492500000000        1.6947957305922914E-012   2.0612230065396244E-006
 chl          78   3.4926466655510062E-004   7.7412265616986630E-004  0.45117484131411495     
 prod   5.0395475338817269E-007   1.5952204764736650E-005   10.000000000000000     
 dcdom   1.0466861767154081E-012  -2.8244012720914619E-010
 chl2c           1  0.60825801313833683        3.7477407714772232E-002  0.60826437499999997        5.7005470778348044E-013   1.6576106944698135E-008
 chl           1   4.1724729043859162E-004   6.8597088969824481E-004  0.60825801313833683     
 chl2c           2  0.48302387329928376        3.2640259920490348E-002  0.48302390000000001        4.6268556433989554E-013   2.0214837747069687E-006
 chl           2   3.3134031611260198E-004   6.8597088969824481E-004  0.48302387329928376     
 chl2c           3   3.7922212503796585E-002   3.7922212503796585E-002  0.75128689999999998        5.7005470778348044E-013   1.6105804769270462E-016
 chl           3   2.6013533850555247E-005   6.8597088969824481E-004   3.7922212503796585E-002
 chl2c           4  0.77318737622163014        3.7976509103863923E-002  0.77318742499999993        5.7005470778348044E-013   3.4932429904672993E-006
 chl           4   5.3038403237020315E-004   6.8597088969824481E-004  0.77318737622163014     
 chl2c           5  0.48489672461409028        2.5710500362372445E-002  0.48489679999999996        1.5676633131646518E-012   2.4447316118014919E-006
 chl           5   3.3262503759529230E-004   6.8597088969824481E-004  0.48489672461409028     
 chl2c           6   3.1261039902252048E-002   3.1261039902252048E-002  0.29222855000000003        4.6268556433989554E-013   1.4545011440816798E-016
 chl           6   2.1444163354640168E-005   6.8597088969824481E-004   3.1261039902252048E-002
 chl2c           7  0.22770739739500173        4.3064391842467263E-002  0.22770740000000000        2.1701947409258463E-013   2.1598100320207456E-006
 chl           7   1.5620064598192114E-004   6.8597088969824481E-004  0.22770739739500173     
 chl2c           8  0.49578352609958454        4.7969800906495587E-002  0.49578364999999996        2.1701947409258463E-013   2.1526837911488770E-007
 chl           8   3.4009306649626501E-004   6.8597088969824481E-004  0.49578352609958454     
 chl2c           9  0.28700199383689340        2.4803669054600401E-002  0.28700202499999999        1.5676633131646518E-012   2.0718195582290197E-006
 chl           9   1.9687501305746394E-004   6.8597088969824481E-004  0.28700199383689340     
 chl2c          10  0.39094658704629437        2.5387016219684602E-002  0.39094662499999999        1.5676633131646518E-012   3.1564833950899801E-006
 chl          10   2.6817797814063888E-004   6.8597088969824481E-004  0.39094658704629437     
 chl2c          11   2.1820572217820047E-002   2.1820572217820047E-002  0.49737575000000001        5.7005470778348044E-013   1.4857673943416756E-016
 chl          11   1.4968277337982820E-005   6.8597088969824481E-004   2.1820572217820047E-002
 chl2c          12   4.5290941298723353E-002   4.5290941298723353E-002  0.30768942500000002        2.1701947409258463E-013   1.0120327079459668E-016
 chl          12   3.1068267297956238E-005   6.8597088969824481E-004   4.5290941298723353E-002
 chl2c          13   3.7935816987997487E-002   3.7935816987997487E-002  0.75666275000000005        5.7005470778348044E-013   1.3388184104024436E-016
 chl          13   2.6022866130686425E-005   6.8597088969824481E-004   3.7935816987997487E-002
 chl2c          14   4.6856526101924839E-002   4.6856526101924839E-002  0.39804095000000000        2.1701947409258463E-013   1.1674311738707151E-016
 chl          14   3.2142212898306411E-005   6.8597088969824481E-004   4.6856526101924839E-002
 chl2c          15  0.25607261990853786        2.0954299823745293E-002  0.25607262500000000        5.7005470778348044E-013   3.6708811302070541E-006
 chl          15   1.7565836290602018E-004   6.8597088969824481E-004  0.25607261990853786     
 chl2c          16   3.7823443882273475E-002   3.7823443882273475E-002  0.71433214999999994        5.7005470778348044E-013   1.6768210318951094E-016
 chl          16   2.5945781451374770E-005   6.8597088969824481E-004   3.7823443882273475E-002
 chl2c          17   3.7542254757581245E-002   3.7542254757581245E-002  0.62580860000000005        5.7005470778348044E-013   1.6759798644231985E-016
 chl          17   2.5752893897336170E-005   6.8597088969824481E-004   3.7542254757581245E-002
 chl2c          18   2.5694475239060960E-002   2.5694475239060960E-002  0.47925950000000000        1.5676633131646518E-012   1.5512002967962947E-016
 chl          18   1.7625662040068168E-005   6.8597088969824481E-004   2.5694475239060960E-002
 chl2c          19  0.63367124646676010        3.7570220750293731E-002  0.63367130000000005        5.7005470778348044E-013   2.1379180344097686E-006
 chl          19   4.3468002871499919E-004   6.8597088969824481E-004  0.63367124646676010     
 chl2c          20   3.7020645196759419E-002   3.7020645196759419E-002  0.50678202500000002        5.7005470778348044E-013   1.4745238530930529E-016
 chl          20   2.5395084922824113E-005   6.8597088969824481E-004   3.7020645196759419E-002
 chl2c          21  0.71973175458019556        3.7838475073783531E-002  0.71973185000000006        5.7005470778348044E-013   1.5473530118112859E-006
 chl          21   4.9371503203345557E-004   6.8597088969824481E-004  0.71973175458019556     
 chl2c          22  0.64616889202034300        3.7613353106285476E-002  0.64616892500000001        5.7005470778348044E-013   3.6085482789603171E-006
 chl          22   4.4325304975452375E-004   6.8597088969824481E-004  0.64616889202034300     
 chl2c          23   3.2286562315070731E-002   3.2286562315070731E-002  0.41564179999999995        4.6268556433989554E-013   1.3130269079350524E-016
 chl          23   2.2147641876566892E-005   6.8597088969824481E-004   3.2286562315070731E-002
 chl2c          24   3.7348402796863071E-002   3.7348402796863071E-002  0.57597492500000003        5.7005470778348044E-013   1.1965227191972596E-016
 chl          24   2.5619917095372578E-005   6.8597088969824481E-004   3.7348402796863071E-002
 chl2c          25   4.5426679235459781E-002   4.5426679235459781E-002  0.31406487500000002        2.1701947409258463E-013   1.0602529484567277E-016
 chl          25   3.1161379571185127E-005   6.8597088969824481E-004   4.5426679235459781E-002
 chl2c          26   4.7955660680174553E-002   4.7955660680174553E-002  0.49427735000000000        2.1701947409258463E-013   9.7964118105193469E-017
 chl          26   3.2896187222846477E-005   6.8597088969824481E-004   4.7955660680174553E-002
 chl2c          27   4.5333133499525620E-002   4.5333133499525620E-002  0.30964730000000001        2.1701947409258463E-013   1.1590169535554438E-016
 chl          27   3.1097209919478898E-005   6.8597088969824481E-004   4.5333133499525620E-002
 chl2c          28   3.1209236063453518E-002   3.1209236063453518E-002  0.28776342500000002        4.6268556433989554E-013   1.1530133467215197E-016
 chl          28   2.1408627429249756E-005   6.8597088969824481E-004   3.1209236063453518E-002
 chl2c          29  0.68676293219213547        3.7743217595736761E-002  0.68676297499999994        5.7005470778348044E-013   3.1403401953068525E-006
 chl          29   4.7109937960761455E-004   6.8597088969824481E-004  0.68676293219213547     
 chl2c          30   2.5380056985171612E-002   2.5380056985171612E-002  0.38930277499999999        1.5676633131646518E-012   1.7011334678052356E-016
 chl          30   1.7409980270710323E-005   6.8597088969824481E-004   2.5380056985171612E-002
 chl2c          31  0.63559381004536653        3.7576959810037038E-002  0.63559385000000002        5.7005470778348044E-013   2.8818988565624760E-006
 chl          31   4.3599885136351728E-004   6.8597088969824481E-004  0.63559381004536653     
 chl2c          32  0.24722667048385147        2.0893126428578448E-002  0.24722667500000001        5.7005470778348044E-013   3.8575269753635135E-006
 chl          32   1.6959029910894240E-004   6.8597088969824481E-004  0.24722667048385147     
 chl2c          33  0.60343133144345018        3.7458922634011876E-002  0.60343137499999999        5.7005470778348044E-013   2.3828067002502140E-006
 chl          33   4.1393632730205997E-004   6.8597088969824481E-004  0.60343133144345018     
 chl2c          34  0.38241013703507504        2.5350269098008315E-002  0.38241020000000003        1.5676633131646518E-012   1.8204676801219440E-006
 chl          34   2.6232222193157815E-004   6.8597088969824481E-004  0.38241013703507504     
 chl2c          35   2.5740370148566064E-002   2.5740370148566064E-002  0.49574644999999995        1.5676633131646518E-012   1.2267112843243687E-016
 chl          35   1.7657144611974004E-005   6.8597088969824481E-004   2.5740370148566064E-002
 chl2c          36   3.7770393924465726E-002   3.7770393924465726E-002  0.69587337500000002        5.7005470778348044E-013   1.2752056188941931E-016
 chl          36   2.5909390724618935E-005   6.8597088969824481E-004   3.7770393924465726E-002
 chl2c          37   2.1353674699533250E-002   2.1353674699533250E-002  0.33194060000000003        5.7005470778348044E-013   1.1227907217373181E-016
 chl          37   1.4647999231965724E-005   6.8597088969824481E-004   2.1353674699533250E-002
 chl2c          38   2.1543295686358745E-002   2.1543295686358745E-002  0.38455722500000000        5.7005470778348044E-013   1.7365689199578887E-016
 chl          38   1.4778073709003868E-005   6.8597088969824481E-004   2.1543295686358745E-002
 chl2c          39   2.5670077108751441E-002   2.5670077108751441E-002  0.47091117500000002        1.5676633131646518E-012   1.3966516455514725E-016
 chl          39   1.7608925632912774E-005   6.8597088969824481E-004   2.5670077108751441E-002
 chl2c          40   3.7687445774703773E-002   3.7687445774703773E-002  0.66875547499999999        5.7005470778348044E-013   1.6800688137357505E-016
 chl          40   2.5852490708527905E-005   6.8597088969824481E-004   3.7687445774703773E-002
 chl2c          41   2.5582381488167241E-002   2.5582381488167241E-002  0.44304987499999998        1.5676633131646518E-012   1.0106406706871652E-016
 chl          41   1.7548768990037990E-005   6.8597088969824481E-004   2.5582381488167241E-002
 chl2c          42   3.7949995630725070E-002   3.7949995630725070E-002  0.76234377499999995        5.7005470778348044E-013   1.4164006188378136E-016
 chl          42   2.6032592266852980E-005   6.8597088969824481E-004   3.7949995630725070E-002
 chl2c          43   2.1185090152268007E-002   2.1185090152268007E-002  0.29539925000000000        5.7005470778348044E-013   1.7290999036140847E-016
 chl          43   1.4532355140088809E-005   6.8597088969824481E-004   2.1185090152268007E-002
 chl2c          44   3.7536352708156646E-002   3.7536352708156646E-002  0.62417262500000004        5.7005470778348044E-013   1.2094907935736192E-016
 chl          44   2.5748845263241336E-005   6.8597088969824481E-004   3.7536352708156646E-002
 chl2c          45  0.37662248172730384        4.6544927192009838E-002  0.37662252499999999        2.1701947409258463E-013   3.5568642270081867E-007
 chl          45   2.5835205887083957E-004   6.8597088969824481E-004  0.37662248172730384     
 chl2c          46  0.51876032613976242        3.7083195475449568E-002  0.51876034999999998        5.7005470778348044E-013   3.2147359426765456E-006
 chl          46   3.5585448246224448E-004   6.8597088969824481E-004  0.51876032613976242     
 chl2c          47   3.7519784612651236E-002   3.7519784612651236E-002  0.61962282499999999        5.7005470778348044E-013   1.5457059291676738E-016
 chl          47   2.5737480032026882E-005   6.8597088969824481E-004   3.7519784612651236E-002
 chl2c          48   3.7823212136301673E-002   3.7823212136301673E-002  0.71424949999999998        5.7005470778348044E-013   1.4863521984115641E-016
 chl          48   2.5945622480384309E-005   6.8597088969824481E-004   3.7823212136301673E-002
 chl2c          49   3.7152990741888416E-002   3.7152990741888416E-002  0.53276120000000005        5.7005470778348044E-013   1.3829346768797300E-016
 chl          49   2.5485870114163850E-005   6.8597088969824481E-004   3.7152990741888416E-002
 chl2c          50  0.38132568515126136        2.1533072915600981E-002  0.38132569999999999        5.7005470778348044E-013   2.7911881532635011E-006
 chl          50   2.6157831950800355E-004   6.8597088969824481E-004  0.38132568515126136     
 chl2c          51   2.0700971146093840E-002   2.0700971146093840E-002  0.22275920000000002        5.7005470778348044E-013   1.8460971078662353E-016
 chl          51   1.4200263594703686E-005   6.8597088969824481E-004   2.0700971146093840E-002
 chl2c          52   3.7581825176985564E-002   3.7581825176985564E-002  0.63698869999999996        5.7005470778348044E-013   1.6453462288862541E-016
 chl          52   2.5780038053140683E-005   6.8597088969824481E-004   3.7581825176985564E-002
 chl2c          53   3.7925801262726190E-002   3.7925801262726190E-002  0.75269794999999995        5.7005470778348044E-013   1.4729362491249534E-016
 chl          53   2.6015995634711101E-005   6.8597088969824481E-004   3.7925801262726190E-002
 chl2c          54   3.7082433371327092E-002   3.7082433371327092E-002  0.51861124999999997        5.7005470778348044E-013   1.2075424487291322E-016
 chl          54   2.5437469811905129E-005   6.8597088969824481E-004   3.7082433371327092E-002
 chl2c          55  0.57808277341754244        3.7357235588660491E-002  0.57808280000000001        5.7005470778348044E-013   3.5832036018525667E-006
 chl          55   3.9654795440046043E-004   6.8597088969824481E-004  0.57808277341754244     
 chl2c          56   3.7507394187257688E-002   3.7507394187257688E-002  0.61626080000000005        5.7005470778348044E-013   1.6497089104189483E-016
 chl          56   2.5728980560895933E-005   6.8597088969824481E-004   3.7507394187257688E-002
 chl2c          57  0.68163457263297245        3.7727617852646313E-002  0.68163462500000005        5.7005470778348044E-013   2.5289012421161478E-006
 chl          57   4.6758147423812301E-004   6.8597088969824481E-004  0.68163457263297245     
 chl2c          58  0.69416796763536748        3.7765358178394853E-002  0.69416802499999997        5.7005470778348044E-013   2.3942610481371425E-006
 chl          58   4.7617901835885542E-004   6.8597088969824481E-004  0.69416796763536748     
 chl2c          59   3.7173699120809672E-002   3.7173699120809672E-002  0.53705127500000005        5.7005470778348044E-013   1.6782215380459957E-016
 chl          59   2.5500075459276671E-005   6.8597088969824481E-004   3.7173699120809672E-002
 chl2c          60  0.64452146968371737        3.7607757740906807E-002  0.64452155000000000        5.7005470778348044E-013   1.4742046371043276E-006
 chl          60   4.4212296598855995E-004   6.8597088969824481E-004  0.64452146968371737     
 chl2c          61   3.7805373434125003E-002   3.7805373434125003E-002  0.70794139999999994        5.7005470778348044E-013   1.4414611734605761E-016
 chl          61   2.5933385649981117E-005   6.8597088969824481E-004   3.7805373434125003E-002
 chl2c          62   3.7956103087269030E-002   3.7956103087269030E-002  0.76481592499999995        5.7005470778348044E-013   1.1757274161161759E-016
 chl          62   2.6036781804252233E-005   6.8597088969824481E-004   3.7956103087269030E-002
 chl2c          63  0.72597898916770953        3.7855601011927406E-002  0.72597904999999996        5.7005470778348044E-013   2.4694515686807696E-006
 chl          63   4.9800045310160611E-004   6.8597088969824481E-004  0.72597898916770953     
 chl2c          64   2.5708982294816416E-002   2.5708982294816416E-002  0.48435739999999999        1.5676633131646518E-012   9.8320451510482259E-017
 chl          64   1.7635613458011640E-005   6.8597088969824481E-004   2.5708982294816416E-002
 chl2c          65   3.7953597170552002E-002   3.7953597170552002E-002  0.76379975000000000        5.7005470778348044E-013   1.2994422854628656E-016
 chl          65   2.6035062818332344E-005   6.8597088969824481E-004   3.7953597170552002E-002
 chl2c          66   3.1840477731474713E-002   3.1840477731474713E-002  0.35213202499999996        4.6268556433989554E-013   1.0551650658602612E-016
 chl          66   2.1841640837876860E-005   6.8597088969824481E-004   3.1840477731474713E-002
 chl2c          67   3.7937587124568600E-002   3.7937587124568600E-002  0.75736760000000003        5.7005470778348044E-013   1.3750469856829534E-016
 chl          67   2.6024080392845000E-005   6.8597088969824481E-004   3.7937587124568600E-002
 chl2c          68  0.72590773061707448        3.7855407263856986E-002  0.72590779999999999        5.7005470778348044E-013   2.1646955146600926E-006
 chl          68   4.9795157181022846E-004   6.8597088969824481E-004  0.72590773061707448     
 chl2c          69  0.45524215254736039        2.1732330561541505E-002  0.45524217500000003        5.7005470778348044E-013   2.6308984935729606E-006
 chl          69   3.1228286441105688E-004   6.8597088969824481E-004  0.45524215254736039     
 chl2c          70   3.2658010878182209E-002   3.2658010878182209E-002  0.48694062500000002        4.6268556433989554E-013   1.3717482180800679E-016
 chl          70   2.2402444777881606E-005   6.8597088969824481E-004   3.2658010878182209E-002
 chl2c          71   4.3481058864416305E-002   4.3481058864416305E-002  0.23986107500000001        2.1701947409258463E-013   1.1538825058314201E-016
 chl          71   2.9826740634245406E-005   6.8597088969824481E-004   4.3481058864416305E-002
 chl2c          72   3.7549776402781669E-002   3.7549776402781669E-002  0.62790522500000001        5.7005470778348044E-013   1.6549311696634924E-016
 chl          72   2.5758053526986300E-005   6.8597088969824481E-004   3.7549776402781669E-002
 chl2c          73   3.1852614277819484E-002   3.1852614277819484E-002  0.35362212500000001        4.6268556433989554E-013   1.2633442323908932E-016
 chl          73   2.1849966155370846E-005   6.8597088969824481E-004   3.1852614277819484E-002
 chl2c          74  0.64719583161303851        3.7616827685877569E-002  0.64719590000000005        5.7005470778348044E-013   1.7457606542535363E-006
 chl          74   4.4395750042059144E-004   6.8597088969824481E-004  0.64719583161303851     
 chl2c          75   3.7826830779512356E-002   3.7826830779512356E-002  0.71554212500000003        5.7005470778348044E-013   1.3038693219213650E-016
 chl          75   2.5948104764287041E-005   6.8597088969824481E-004   3.7826830779512356E-002
 chl2c          76  0.55513974753807593        3.7257729557919804E-002  0.55513977500000000        5.7005470778348044E-013   3.1986023186054167E-006
 chl          76   3.8080970652555298E-004   6.8597088969824481E-004  0.55513974753807593     
 chl2c          77  0.52973019470298843        3.7138172437479272E-002  0.52973029999999999        5.7005470778348044E-013   7.5959139917208685E-007
 chl          77   3.6337949296043342E-004   6.8597088969824481E-004  0.52973019470298843     
 chl2c          78  0.45117491453554159        4.7515248899399322E-002  0.45117492500000000        2.1701947409258463E-013   2.1107745640426098E-006
 chl          78   3.0949285753347503E-004   6.8597088969824481E-004  0.45117491453554159     
 prod   5.9214605824591295E-007   2.0387062589166189E-006   10.000000000000000     
 dcdom   1.1394719593572471E-012  -2.7068925103801286E-010
 chl2c           1  0.60826427458517174        3.7477407714772232E-002  0.60826437499999997        7.6873966034642957E-014   1.4162376423006938E-007
 chl           1   3.3343509005399609E-004   5.4817470626792025E-004  0.60826427458517174     
 chl2c           2  0.48302389530665424        3.2640259920490348E-002  0.48302390000000001        6.2769410024591507E-014   1.5601729221488052E-006
 chl           2   2.6478148193011182E-004   5.4817470626792025E-004  0.48302389530665424     
 chl2c           3   3.7922212503796585E-002   3.7922212503796585E-002  0.75128689999999998        7.6873966034642957E-014   1.4675341203464547E-016
 chl           3   2.0787997700298347E-005   5.4817470626792025E-004   3.7922212503796585E-002
 chl2c           4  0.77318741783279976        3.7976509103863923E-002  0.77318742499999993        7.6873966034642957E-014   3.2060428253162204E-006
 chl           4   4.2384178566054671E-004   5.4817470626792025E-004  0.77318741783279976     
 chl2c           5  0.48489678827394300        2.5710500362372445E-002  0.48489679999999996        2.1094256380763805E-013   2.1148562287295684E-006
 chl           5   2.6580815448232664E-004   5.4817470626792025E-004  0.48489678827394300     
 chl2c           6   3.1261039902252048E-002   3.1261039902252048E-002  0.29222855000000003        6.2769410024591507E-014   1.3412662851554101E-016
 chl           6   1.7136511366046750E-005   5.4817470626792025E-004   3.1261039902252048E-002
 chl2c           7  0.22770739956255223        4.3064391842467263E-002  0.22770740000000000        2.9487489871428079E-014   1.7475753920884007E-006
 chl           7   1.2482343687023403E-004   5.4817470626792025E-004  0.22770739956255223     
 chl2c           8  0.49578363854530644        4.7969800906495587E-002  0.49578364999999996        2.9487489871428079E-014   3.1637978571006909E-007
 chl           8   2.7177605043201408E-004   5.4817470626792025E-004  0.49578363854530644     
 chl2c           9  0.28700202085290100        2.4803669054600401E-002  0.28700202499999999        2.1094256380763805E-013   2.0948828306382777E-006
 chl           9   1.5732724847933852E-004   5.4817470626792025E-004  0.28700202085290100     
 chl2c          10  0.39094661926378282        2.5387016219684602E-002  0.39094662499999999        2.1094256380763805E-013   2.8102410411638008E-006
 chl          10   2.1430704818136060E-004   5.4817470626792025E-004  0.39094661926378282     
 chl2c          11   2.1820572217820047E-002   2.1820572217820047E-002  0.49737575000000001        7.6873966034642957E-014   1.3597697913234002E-016
 chl          11   1.1961485766101446E-005   5.4817470626792025E-004   2.1820572217820047E-002
 chl2c          12   4.5290941298723353E-002   4.5290941298723353E-002  0.30768942500000002        2.9487489871428079E-014   8.2950226927832448E-017
 chl          12   2.4827348443025292E-005   5.4817470626792025E-004   4.5290941298723353E-002
 chl2c          13   3.7935816987997487E-002   3.7935816987997487E-002  0.75666275000000005        7.6873966034642957E-014   1.2184762648199044E-016
 chl          13   2.0795455334429100E-005   5.4817470626792025E-004   3.7935816987997487E-002
 chl2c          14   4.6856526101924839E-002   4.6856526101924839E-002  0.39804095000000000        2.9487489871428079E-014   1.0640710183567190E-016
 chl          14   2.5685562432657788E-005   5.4817470626792025E-004   4.6856526101924839E-002
 chl2c          15  0.25607262423604582        2.0954299823745293E-002  0.25607262500000000        7.6873966034642957E-014   3.2991973827342490E-006
 chl          15   1.4037253557384993E-004   5.4817470626792025E-004  0.25607262423604582     
 chl2c          16   3.7823443882273475E-002   3.7823443882273475E-002  0.71433214999999994        7.6873966034642957E-014   1.5283322766825365E-016
 chl          16   2.0733855240206426E-005   5.4817470626792025E-004   3.7823443882273475E-002
 chl2c          17   3.7542254757581245E-002   3.7542254757581245E-002  0.62580860000000005        7.6873966034642957E-014   1.5275599935755670E-016
 chl          17   2.0579714474372529E-005   5.4817470626792025E-004   3.7542254757581245E-002
 chl2c          18   2.5694475239060960E-002   2.5694475239060960E-002  0.47925950000000000        2.1094256380763805E-013   1.4203930611628745E-016
 chl          18   1.4085061416880592E-005   5.4817470626792025E-004   2.5694475239060960E-002
 chl2c          19  0.63367129235772190        3.7570220750293731E-002  0.63367130000000005        7.6873966034642957E-014   2.0195495836780336E-006
 chl          19   3.4736257455860760E-004   5.4817470626792025E-004  0.63367129235772190     
 chl2c          20   3.7020645196759419E-002   3.7020645196759419E-002  0.50678202500000002        7.6873966034642957E-014   1.3427690600464387E-016
 chl          20   2.0293781306582488E-005   5.4817470626792025E-004   3.7020645196759419E-002
 chl2c          21  0.71973183737301882        3.7838475073783531E-002  0.71973185000000006        7.6873966034642957E-014   1.5768529417051108E-006
 chl          21   3.9453878854362514E-004   5.4817470626792025E-004  0.71973183737301882     
 chl2c          22  0.64616892005654392        3.7613353106285476E-002  0.64616892500000001        7.6873966034642957E-014   3.2464651462337076E-006
 chl          22   3.5421345795145522E-004   5.4817470626792025E-004  0.64616892005654392     
 chl2c          23   3.2286562315070731E-002   3.2286562315070731E-002  0.41564179999999995        6.2769410024591507E-014   1.0893525504860360E-016
 chl          23   1.7698676813464803E-005   5.4817470626792025E-004   3.2286562315070731E-002
 chl2c          24   3.7348402796863071E-002   3.7348402796863071E-002  0.57597492500000003        7.6873966034642957E-014   1.0883070571837350E-016
 chl          24   2.0473449732746387E-005   5.4817470626792025E-004   3.7348402796863071E-002
 chl2c          25   4.5426679235459781E-002   4.5426679235459781E-002  0.31406487500000002        2.9487489871428079E-014   8.7070850132834621E-017
 chl          25   2.4901756546625197E-005   5.4817470626792025E-004   4.5426679235459781E-002
 chl2c          26   4.7955660680174553E-002   4.7955660680174553E-002  0.49427735000000000        2.9487489871428079E-014   8.0191166857633759E-017
 chl          26   2.6288080207238739E-005   5.4817470626792025E-004   4.7955660680174553E-002
 chl2c          27   4.5333133499525620E-002   4.5333133499525620E-002  0.30964730000000001        2.9487489871428079E-014   1.0560413485228492E-016
 chl          27   2.4850477140306873E-005   5.4817470626792025E-004   4.5333133499525620E-002
 chl2c          28   3.1209236063453518E-002   3.1209236063453518E-002  0.28776342500000002        6.2769410024591507E-014   1.0503154127466547E-016
 chl          28   1.7108113811929817E-005   5.4817470626792025E-004   3.1209236063453518E-002
 chl2c          29  0.68676296852545249        3.7743217595736761E-002  0.68676297499999994        7.6873966034642957E-014   2.7999715549011344E-006
 chl          29   3.7646608854712487E-004   5.4817470626792025E-004  0.68676296852545249     
 chl2c          30   2.5380056985171612E-002   2.5380056985171612E-002  0.38930277499999999        2.1094256380763805E-013   1.5595571264256332E-016
 chl          30   1.3912705282909526E-005   5.4817470626792025E-004   2.5380056985171612E-002
 chl2c          31  0.63559384368950156        3.7576959810037038E-002  0.63559385000000002        7.6873966034642957E-014   2.4606225481058624E-006
 chl          31   3.4841646857019094E-004   5.4817470626792025E-004  0.63559384368950156     
 chl2c          32  0.24722667432719514        2.0893126428578448E-002  0.24722667500000001        7.6873966034642957E-014   3.4918116387215152E-006
 chl          32   1.3552340958090497E-004   5.4817470626792025E-004  0.24722667432719514     
 chl2c          33  0.60343136870410785        3.7458922634011876E-002  0.60343137499999999        7.6873966034642957E-014   2.2230426053150484E-006
 chl          33   3.3078581329222339E-004   5.4817470626792025E-004  0.60343136870410785     
 chl2c          34  0.38241018935938453        2.5350269098008315E-002  0.38241020000000003        2.1094256380763805E-013   1.4495272944144653E-006
 chl          34   2.0962759322594037E-004   5.4817470626792025E-004  0.38241018935938453     
 chl2c          35   2.5740370148566064E-002   2.5740370148566064E-002  0.49574644999999995        2.1094256380763805E-013   1.1203983757763838E-016
 chl          35   1.4110219845417745E-005   5.4817470626792025E-004   2.5740370148566064E-002
 chl2c          36   3.7770393924465726E-002   3.7770393924465726E-002  0.69587337500000002        7.6873966034642957E-014   1.1602644739569973E-016
 chl          36   2.0704774595167637E-005   5.4817470626792025E-004   3.7770393924465726E-002
 chl2c          37   2.1353674699533250E-002   2.1353674699533250E-002  0.33194060000000003        7.6873966034642957E-014   1.0246578514682333E-016
 chl          37   1.1705544356157360E-005   5.4817470626792025E-004   2.1353674699533250E-002
 chl2c          38   2.1543295686358745E-002   2.1543295686358745E-002  0.38455722500000000        7.6873966034642957E-014   1.5924991133445206E-016
 chl          38   1.1809489784912658E-005   5.4817470626792025E-004   2.1543295686358745E-002
 chl2c          39   2.5670077108751441E-002   2.5670077108751441E-002  0.47091117500000002        2.1094256380763805E-013   1.2773105227053357E-016
 chl          39   1.4071686978964684E-005   5.4817470626792025E-004   2.5670077108751441E-002
 chl2c          40   3.7687445774703773E-002   3.7687445774703773E-002  0.66875547499999999        7.6873966034642957E-014   1.5313141480497801E-016
 chl          40   2.0659304517536414E-005   5.4817470626792025E-004   3.7687445774703773E-002
 chl2c          41   2.5582381488167241E-002   2.5582381488167241E-002  0.44304987499999998        2.1094256380763805E-013   9.2151427674866999E-017
 chl          41   1.4023614457909957E-005   5.4817470626792025E-004   2.5582381488167241E-002
 chl2c          42   3.7949995630725070E-002   3.7949995630725070E-002  0.76234377499999995        7.6873966034642957E-014   1.2895156262489997E-016
 chl          42   2.0803227707741572E-005   5.4817470626792025E-004   3.7949995630725070E-002
 chl2c          43  0.29539917622763323        2.1185090152268007E-002  0.29539925000000000        7.6873966034642957E-014   4.5464690941114403E-008
 chl          43   1.6193035666036846E-004   5.4817470626792025E-004  0.29539917622763323     
 chl2c          44   3.7536352708156646E-002   3.7536352708156646E-002  0.62417262500000004        7.6873966034642957E-014   1.1001632629185702E-016
 chl          44   2.0576479120162823E-005   5.4817470626792025E-004   3.7536352708156646E-002
 chl2c          45  0.37662250817677567        4.6544927192009838E-002  0.37662252499999999        2.9487489871428079E-014   1.2431145069290556E-007
 chl          45   2.0645493279369139E-004   5.4817470626792025E-004  0.37662250817677567     
 chl2c          46  0.51876034633414325        3.7083195475449568E-002  0.51876034999999998        7.6873966034642957E-014   2.8216773468517058E-006
 chl          46   2.8437130047516358E-004   5.4817470626792025E-004  0.51876034633414325     
 chl2c          47   3.7519784612651236E-002   3.7519784612651236E-002  0.61962282499999999        7.6873966034642957E-014   1.4080247171060392E-016
 chl          47   2.0567396909275725E-005   5.4817470626792025E-004   3.7519784612651236E-002
 chl2c          48   3.7823212136301673E-002   3.7823212136301673E-002  0.71424949999999998        7.6873966034642957E-014   1.3536097453930599E-016
 chl          48   2.0733728202926405E-005   5.4817470626792025E-004   3.7823212136301673E-002
 chl2c          49   3.7152990741888416E-002   3.7152990741888416E-002  0.53276120000000005        7.6873966034642957E-014   1.2588660391454574E-016
 chl          49   2.0366329786909442E-005   5.4817470626792025E-004   3.7152990741888416E-002
 chl2c          50  0.38132569781971026        2.1533072915600981E-002  0.38132569999999999        7.6873966034642957E-014   2.5634641175981284E-006
 chl          50   2.0903310239472938E-004   5.4817470626792025E-004  0.38132569781971026     
 chl2c          51   2.0700971146093840E-002   2.0700971146093840E-002  0.22275920000000002        7.6873966034642957E-014   1.6944467175139940E-016
 chl          51   1.1347748777470683E-005   5.4817470626792025E-004   2.0700971146093840E-002
 chl2c          52   3.7581825176985564E-002   3.7581825176985564E-002  0.63698869999999996        7.6873966034642957E-014   1.4994389688152942E-016
 chl          52   2.0601405977406391E-005   5.4817470626792025E-004   3.7581825176985564E-002
 chl2c          53   3.7925801262726190E-002   3.7925801262726190E-002  0.75269794999999995        7.6873966034642957E-014   1.3413141068702132E-016
 chl          53   2.0789964967170446E-005   5.4817470626792025E-004   3.7925801262726190E-002
 chl2c          54   3.7082433371327092E-002   3.7082433371327092E-002  0.51861124999999997        7.6873966034642957E-014   1.0983818812154178E-016
 chl          54   2.0327652021026953E-005   5.4817470626792025E-004   3.7082433371327092E-002
 chl2c          55  0.57808279601236334        3.7357235588660491E-002  0.57808280000000001        7.6873966034642957E-014   3.2211712012579967E-006
 chl          55   3.1689036690261534E-004   5.4817470626792025E-004  0.57808279601236334     
 chl2c          56   3.7507394187257688E-002   3.7507394187257688E-002  0.61626080000000005        7.6873966034642957E-014   1.5034433447011742E-016
 chl          56   2.0560604791475082E-005   5.4817470626792025E-004   3.7507394187257688E-002
 chl2c          57  0.68163461638482870        3.7727617852646313E-002  0.68163462500000005        7.6873966034642957E-014   2.0729491669152792E-006
 chl          57   3.7365485561879994E-004   5.4817470626792025E-004  0.68163461638482870     
 chl2c          58  0.69416801704327247        3.7765358178394853E-002  0.69416802499999997        7.6873966034642957E-014   2.3277911310783659E-006
 chl          58   3.8052534884328054E-004   5.4817470626792025E-004  0.69416801704327247     
 chl2c          59  0.53705037962803304        3.7173699120809672E-002  0.53705127500000005        7.6873966034642957E-014   1.2381594557179061E-008
 chl          59   2.9439743410367207E-004   5.4817470626792025E-004  0.53705037962803304     
 chl2c          60  0.64452153916911292        3.7607757740906807E-002  0.64452155000000000        7.6873966034642957E-014   1.4742126752016128E-006
 chl          60   3.5331040541737634E-004   5.4817470626792025E-004  0.64452153916911292     
 chl2c          61   3.7805373434125003E-002   3.7805373434125003E-002  0.70794139999999994        7.6873966034642957E-014   1.3124731378829607E-016
 chl          61   2.0723949477600510E-005   5.4817470626792025E-004   3.7805373434125003E-002
 chl2c          62   3.7956103087269030E-002   3.7956103087269030E-002  0.76481592499999995        7.6873966034642957E-014   1.0692975257249249E-016
 chl          62   2.0806575660938602E-005   5.4817470626792025E-004   3.7956103087269030E-002
 chl2c          63  0.72597904104271860        3.7855601011927406E-002  0.72597904999999996        7.6873966034642957E-014   2.2616283611054212E-006
 chl          63   3.9796334758025867E-004   5.4817470626792025E-004  0.72597904104271860     
 chl2c          64   2.5708982294816416E-002   2.5708982294816416E-002  0.48435739999999999        2.1094256380763805E-013   8.9630940547013006E-017
 chl          64   1.4093013817908151E-005   5.4817470626792025E-004   2.5708982294816416E-002
 chl2c          65   3.7953597170552002E-002   3.7953597170552002E-002  0.76379975000000000        7.6873966034642957E-014   1.1824395010271416E-016
 chl          65   2.0805201980778313E-005   5.4817470626792025E-004   3.7953597170552002E-002
 chl2c          66   3.1840477731474713E-002   3.1840477731474713E-002  0.35213202499999996        6.2769410024591507E-014   8.6635316053384955E-017
 chl          66   1.7454144527881405E-005   5.4817470626792025E-004   3.1840477731474713E-002
 chl2c          67   3.7937587124568600E-002   3.7937587124568600E-002  0.75736760000000003        7.6873966034642957E-014   1.2516434643773305E-016
 chl          67   2.0796425678524024E-005   5.4817470626792025E-004   3.7937587124568600E-002
 chl2c          68  0.72590779060311772        3.7855407263856986E-002  0.72590779999999999        7.6873966034642957E-014   2.1554027185569933E-006
 chl          68   3.9792428989145900E-004   5.4817470626792025E-004  0.72590779060311772     
 chl2c          69  0.45524217160825714        2.1732330561541505E-002  0.45524217500000003        7.6873966034642957E-014   2.3486123643102561E-006
 chl          69   2.4955224370212651E-004   5.4817470626792025E-004  0.45524217160825714     
 chl2c          70   3.2658010878182209E-002   3.2658010878182209E-002  0.48694062500000002        6.2769410024591507E-014   1.2607104537342201E-016
 chl          70   1.7902295520442077E-005   5.4817470626792025E-004   3.2658010878182209E-002
 chl2c          71   4.3481058864416305E-002   4.3481058864416305E-002  0.23986107500000001        2.9487489871428079E-014   9.5117645853363693E-017
 chl          71   2.3835216671219559E-005   5.4817470626792025E-004   4.3481058864416305E-002
 chl2c          72   3.7549776402781669E-002   3.7549776402781669E-002  0.62790522500000001        7.6873966034642957E-014   1.5082369078482532E-016
 chl          72   2.0583837650020923E-005   5.4817470626792025E-004   3.7549776402781669E-002
 chl2c          73   3.1852614277819484E-002   3.1852614277819484E-002  0.35362212500000001        6.2769410024591507E-014   1.0460246900555435E-016
 chl          73   1.7460797475609060E-005   5.4817470626792025E-004   3.1852614277819484E-002
 chl2c          74  0.64719589082689943        3.7616827685877569E-002  0.64719590000000005        7.6873966034642957E-014   1.7551112105494912E-006
 chl          74   3.5477641735184059E-004   5.4817470626792025E-004  0.64719589082689943     
 chl2c          75   3.7826830779512356E-002   3.7826830779512356E-002  0.71554212500000003        7.6873966034642957E-014   1.1864904716499359E-016
 chl          75   2.0735711851605511E-005   5.4817470626792025E-004   3.7826830779512356E-002
 chl2c          76  0.55513977087497357        3.7257729557919804E-002  0.55513977500000000        7.6873966034642957E-014   2.8716217845595665E-006
 chl          76   3.0431358083702920E-004   5.4817470626792025E-004  0.55513977087497357     
 chl2c          77  0.52973028717055082        3.7138172437479272E-002  0.52973029999999999        7.6873966034642957E-014   8.4071906894195155E-007
 chl          77   2.9038474457093776E-004   5.4817470626792025E-004  0.52973028717055082     
 chl2c          78  0.45117492320393865        4.7515248899399322E-002  0.45117492500000000        2.9487489871428079E-014   1.6710003501190058E-006
 chl          78   2.4732268100277052E-004   5.4817470626792025E-004  0.45117492320393865     
 prod   4.6642480283754154E-007   2.7668598538659687E-007   10.000000000000000     
 dcdom   1.1806129111885966E-012  -2.5423526505863314E-010
 chl2c           1  0.60826436629896541        3.7477407714772232E-002  0.60826437499999997        1.1175384912629231E-014   2.3759995511885236E-007
 chl           1   2.3954338126335099E-004   3.9381458874678525E-004  0.60826436629896541     
 chl2c           2  0.48302389880916863        3.2640259920490348E-002  0.48302390000000001        9.1521725504830031E-015   8.9656373346627371E-007
 chl           2   1.9022185806440156E-004   3.9381458874678525E-004  0.48302389880916863     
 chl2c           3   3.7922212503796585E-002   3.7922212503796585E-002  0.75128689999999998        1.1175384912629231E-014   1.2647433273390997E-016
 chl           3   1.4934320521550849E-005   3.9381458874678525E-004   3.7922212503796585E-002
 chl2c           4  0.77318742379350147        3.7976509103863923E-002  0.77318742499999993        1.1175384912629231E-014   2.7686961560705179E-006
 chl           4   3.0449248732542411E-004   3.9381458874678525E-004  0.77318742379350147     
 chl2c           5  0.48489679789549589        2.5710500362372445E-002  0.48489679999999996        3.0659176887593760E-014   1.7126923608414073E-006
 chl           5   1.9095943304784776E-004   3.9381458874678525E-004  0.48489679789549589     
 chl2c           6   3.1261039902252048E-002   3.1261039902252048E-002  0.29222855000000003        9.1521725504830031E-015   1.0768326796599640E-016
 chl           6   1.2311053572902234E-005   3.9381458874678525E-004   3.1261039902252048E-002
 chl2c           7  0.22770739989497144        4.3064391842467263E-002  0.22770740000000000        4.3016237416308721E-015   1.0618159194972824E-006
 chl           7   8.9674496044237948E-005   3.9381458874678525E-004  0.22770739989497144     
 chl2c           8  0.49578364813447162        4.7969800906495587E-002  0.49578364999999996        4.3016237416308721E-015   2.8339029593628265E-007
 chl           8   1.9524683349745781E-004   3.9381458874678525E-004  0.49578364813447162     
 chl2c           9  0.28700202434937494        2.4803669054600401E-002  0.28700202499999999        3.0659176887593760E-014   1.9407503451599777E-006
 chl           9   1.1302558418864393E-004   3.9381458874678525E-004  0.28700202434937494     
 chl2c          10  0.39094662400318109        2.5387016219684602E-002  0.39094662499999999        3.0659176887593760E-014   2.3504398524034284E-006
 chl          10   1.5396048395375684E-004   3.9381458874678525E-004  0.39094662400318109     
 chl2c          11   2.1820572217820047E-002   2.1820572217820047E-002  0.49737575000000001        1.1175384912629231E-014   1.1738560374407883E-016
 chl          11   8.5932596741803287E-006   3.9381458874678525E-004   2.1820572217820047E-002
 chl2c          12   4.5290941298723353E-002   4.5290941298723353E-002  0.30768942500000002        4.3016237416308721E-015   5.1151673165061010E-017
 chl          12   1.7836233421511530E-005   3.9381458874678525E-004   4.5290941298723353E-002
 chl2c          13   3.7935816987997487E-002   3.7935816987997487E-002  0.75666275000000005        1.1175384912629231E-014   1.0496997534598077E-016
 chl          13   1.4939678165901540E-005   3.9381458874678525E-004   3.7935816987997487E-002
 chl2c          14   4.6856526101924839E-002   4.6856526101924839E-002  0.39804095000000000        4.3016237416308721E-015   8.4131763561719919E-017
 chl          14   1.8452783556932539E-005   3.9381458874678525E-004   4.6856526101924839E-002
 chl2c          15  0.25607262486861054        2.0954299823745293E-002  0.25607262500000000        1.1175384912629231E-014   2.7886779659648286E-006
 chl          15   1.0084513545194167E-004   3.9381458874678525E-004  0.25607262486861054     
 chl2c          16   3.7823443882273475E-002   3.7823443882273475E-002  0.71433214999999994        1.1175384912629231E-014   1.3172697989202565E-016
 chl          16   1.4895423997484639E-005   3.9381458874678525E-004   3.7823443882273475E-002
 chl2c          17   3.7542254757581245E-002   3.7542254757581245E-002  0.62580860000000005        1.1175384912629231E-014   1.3166025048203144E-016
 chl          17   1.4784687617983900E-005   3.9381458874678525E-004   3.7542254757581245E-002
 chl2c          18   2.5694475239060960E-002   2.5694475239060960E-002  0.47925950000000000        3.0659176887593760E-014   1.2264700520599592E-016
 chl          18   1.0118859199335249E-005   3.9381458874678525E-004   2.5694475239060960E-002
 chl2c          19  0.63367129874401040        3.7570220750293731E-002  0.63367130000000005        1.1175384912629231E-014   1.7863827034133629E-006
 chl          19   2.4954900191551376E-004   3.9381458874678525E-004  0.63367129874401040     
 chl2c          20   3.7020645196759419E-002   3.7020645196759419E-002  0.50678202500000002        1.1175384912629231E-014   1.1569923179197429E-016
 chl          20   1.4579270163302461E-005   3.9381458874678525E-004   3.7020645196759419E-002
 chl2c          21  0.71973184804737567        3.7838475073783531E-002  0.71973185000000006        1.1175384912629231E-014   1.4823652286648097E-006
 chl          21   2.8344090174674095E-004   3.9381458874678525E-004  0.71973184804737567     
 chl2c          22  0.64616892415566851        3.7613353106285476E-002  0.64616892500000001        1.1175384912629231E-014   2.7631958048678451E-006
 chl          22   2.5447074912731728E-004   3.9381458874678525E-004  0.64616892415566851     
 chl2c          23   3.2286562315070731E-002   3.2286562315070731E-002  0.41564179999999995        9.1521725504830031E-015   6.8635748886706914E-017
 chl          23   1.2714919260157035E-005   3.9381458874678525E-004   3.2286562315070731E-002
 chl2c          24   3.7348402796863071E-002   3.7348402796863071E-002  0.57597492500000003        1.1175384912629231E-014   9.3738564776412311E-017
 chl          24   1.4708345887795914E-005   3.9381458874678525E-004   3.7348402796863071E-002
 chl2c          25   4.5426679235459781E-002   4.5426679235459781E-002  0.31406487500000002        4.3016237416308721E-015   5.3874440009857152E-017
 chl          25   1.7889689001244724E-005   3.9381458874678525E-004   4.5426679235459781E-002
 chl2c          26   4.7955660680174553E-002   4.7955660680174553E-002  0.49427735000000000        4.3016237416308721E-015   4.9338826772201563E-017
 chl          26   1.8885638788843320E-005   3.9381458874678525E-004   4.7955660680174553E-002
 chl2c          27   4.5333133499525620E-002   4.5333133499525620E-002  0.30964730000000001        4.3016237416308721E-015   8.3459759131362687E-017
 chl          27   1.7852849325718795E-005   3.9381458874678525E-004   4.5333133499525620E-002
 chl2c          28   3.1209236063453518E-002   3.1209236063453518E-002  0.28776342500000002        9.1521725504830031E-015   8.2980905240393323E-017
 chl          28   1.2290652465430286E-005   3.9381458874678525E-004   3.1209236063453518E-002
 chl2c          29  0.68676297388318841        3.7743217595736761E-002  0.68676297499999994        1.1175384912629231E-014   2.3597519838436010E-006
 chl          29   2.7045727812632708E-004   3.9381458874678525E-004  0.68676297388318841     
 chl2c          30   2.5380056985171612E-002   2.5380056985171612E-002  0.38930277499999999        3.0659176887593760E-014   1.3473730322914728E-016
 chl          30   9.9950367039853321E-006   3.9381458874678525E-004   2.5380056985171612E-002
 chl2c          31  0.63559384885807380        3.7576959810037038E-002  0.63559385000000002        1.1175384912629231E-014   1.9767594797349116E-006
 chl          31   2.5030613019802873E-004   3.9381458874678525E-004  0.63559384885807380     
 chl2c          32  0.24722667488534986        2.0893126428578448E-002  0.24722667500000001        1.1175384912629231E-014   2.9788493148984116E-006
 chl          32   9.7361471297209231E-005   3.9381458874678525E-004  0.24722667488534986     
 chl2c          33  0.60343137395475577        3.7458922634011876E-002  0.60343137499999999        1.1175384912629231E-014   1.9465721012201083E-006
 chl          33   2.3764007837089973E-004   3.9381458874678525E-004  0.60343137395475577     
 chl2c          34  0.38241019790240266        2.5350269098008315E-002  0.38241020000000003        3.0659176887593760E-014   1.0687282660124786E-006
 chl          34   1.5059871481951147E-004   3.9381458874678525E-004  0.38241019790240266     
 chl2c          35   2.5740370148566064E-002   2.5740370148566064E-002  0.49574644999999995        3.0659176887593760E-014   9.6640449389680907E-017
 chl          35   1.0136933284247572E-005   3.9381458874678525E-004   2.5740370148566064E-002
 chl2c          36   3.7770393924465726E-002   3.7770393924465726E-002  0.69587337500000002        1.1175384912629231E-014   9.9946649697197629E-017
 chl          36   1.4874532150167546E-005   3.9381458874678525E-004   3.7770393924465726E-002
 chl2c          37   2.1353674699533250E-002   2.1353674699533250E-002  0.33194060000000003        1.1175384912629231E-014   8.8355238983817906E-017
 chl          37   8.4093886200293202E-006   3.9381458874678525E-004   2.1353674699533250E-002
 chl2c          38   2.3143827569472909E-002   2.1543295686358745E-002  0.38455722500000000        1.1175384912629231E-014   1.3760189261461070E-016
 chl          38   9.1143769362984831E-006   3.9381458874678525E-004   2.3143827569472909E-002
 chl2c          39   2.5670077108751441E-002   2.5670077108751441E-002  0.47091117500000002        3.0659176887593760E-014   1.1023409391017659E-016
 chl          39   1.0109250859681216E-005   3.9381458874678525E-004   2.5670077108751441E-002
 chl2c          40   3.7687445774703773E-002   3.7687445774703773E-002  0.66875547499999999        1.1175384912629231E-014   1.3198463158144398E-016
 chl          40   1.4841865958681736E-005   3.9381458874678525E-004   3.7687445774703773E-002
 chl2c          41   2.5582381488167241E-002   2.5582381488167241E-002  0.44304987499999998        3.0659176887593760E-014   7.9436438404220217E-017
 chl          41   1.0074715044925953E-005   3.9381458874678525E-004   2.5582381488167241E-002
 chl2c          42   3.7949995630725070E-002   3.7949995630725070E-002  0.76234377499999995        1.1175384912629231E-014   1.1110166388184688E-016
 chl          42   1.4945261922256291E-005   3.9381458874678525E-004   3.7949995630725070E-002
 chl2c          43  0.29539924766709341        2.1185090152268007E-002  0.29539925000000000        1.1175384912629231E-014   2.0900367295887138E-007
 chl          43   1.1633253323612615E-004   3.9381458874678525E-004  0.29539924766709341     
 chl2c          44   3.7536352708156646E-002   3.7536352708156646E-002  0.62417262500000004        1.1175384912629231E-014   9.4761347218724177E-017
 chl          44   1.4782363304816988E-005   3.9381458874678525E-004   3.7536352708156646E-002
 chl2c          45   4.6544927192009838E-002   4.6544927192009838E-002  0.37662252499999999        4.3016237416308721E-015   6.3823947348827909E-017
 chl          45   1.8330071360370415E-005   3.9381458874678525E-004   4.6544927192009838E-002
 chl2c          46  0.51876034935618454        3.7083195475449568E-002  0.51876034999999998        1.1175384912629231E-014   2.3356331828681194E-006
 chl          46   2.0429539363984444E-004   3.9381458874678525E-004  0.51876034935618454     
 chl2c          47   3.7519784612651236E-002   3.7519784612651236E-002  0.61962282499999999        1.1175384912629231E-014   1.2133426218929960E-016
 chl          47   1.4775838547099208E-005   3.9381458874678525E-004   3.7519784612651236E-002
 chl2c          48   3.7823212136301673E-002   3.7823212136301673E-002  0.71424949999999998        1.1175384912629231E-014   1.1663526147099440E-016
 chl          48   1.4895332732540060E-005   3.9381458874678525E-004   3.7823212136301673E-002
 chl2c          49   3.7152990741888416E-002   3.7152990741888416E-002  0.53276120000000005        1.1175384912629231E-014   1.0845598217949841E-016
 chl          49   1.4631389769729907E-005   3.9381458874678525E-004   3.7152990741888416E-002
 chl2c          50  0.38132569963212065        2.1533072915600981E-002  0.38132569999999999        1.1175384912629231E-014   2.2086109809485667E-006
 chl          50   1.5017162357920376E-004   3.9381458874678525E-004  0.38132569963212065     
 chl2c          51   2.3453698890532164E-002   2.0700971146093840E-002  0.22275920000000002        1.1175384912629231E-014   1.4647388592555540E-016
 chl          51   9.2364087831658571E-006   3.9381458874678525E-004   2.3453698890532164E-002
 chl2c          52   3.7581825176985564E-002   3.7581825176985564E-002  0.63698869999999996        1.1175384912629231E-014   1.2923058602139112E-016
 chl          52   1.4800271026428150E-005   3.9381458874678525E-004   3.7581825176985564E-002
 chl2c          53   3.7925801262726190E-002   3.7925801262726190E-002  0.75269794999999995        1.1175384912629231E-014   1.1557360803455442E-016
 chl          53   1.4935733827172824E-005   3.9381458874678525E-004   3.7925801262726190E-002
 chl2c          54   3.7082433371327092E-002   3.7082433371327092E-002  0.51861124999999997        1.1175384912629231E-014   9.4607672679712274E-017
 chl          54   1.4603603247859244E-005   3.9381458874678525E-004   3.7082433371327092E-002
 chl2c          55  0.57808279931864592        3.7357235588660491E-002  0.57808280000000001        1.1175384912629231E-014   2.7405625619069500E-006
 chl          55   2.2765743987526293E-004   3.9381458874678525E-004  0.57808279931864592     
 chl2c          56   3.7507394187257688E-002   3.7507394187257688E-002  0.61626080000000005        1.1175384912629231E-014   1.2957654826771249E-016
 chl          56   1.4770959016818450E-005   3.9381458874678525E-004   3.7507394187257688E-002
 chl2c          57  0.68163462337045955        3.7727617852646313E-002  0.68163462500000005        1.1175384912629231E-014   1.5932012035168437E-006
 chl          57   2.6843765887820737E-004   3.9381458874678525E-004  0.68163462337045955     
 chl2c          58  0.69416802372148556        3.7765358178394853E-002  0.69416802499999997        1.1175384912629231E-014   2.1059889989615704E-006
 chl          58   2.7337349478304552E-004   3.9381458874678525E-004  0.69416802372148556     
 chl2c          59  0.53705126188830687        3.7173699120809672E-002  0.53705127500000005        1.1175384912629231E-014   1.2291509252118244E-007
 chl          59   2.1149862183648564E-004   3.9381458874678525E-004  0.53705126188830687     
 chl2c          60  0.64452154830032371        3.7607757740906807E-002  0.64452155000000000        1.1175384912629231E-014   1.3656555518684622E-006
 chl          60   2.5382198848233325E-004   3.9381458874678525E-004  0.64452154830032371     
 chl2c          61   3.7805373434125003E-002   3.7805373434125003E-002  0.70794139999999994        1.1175384912629231E-014   1.1308355940298103E-016
 chl          61   1.4888307591378578E-005   3.9381458874678525E-004   3.7805373434125003E-002
 chl2c          62   3.7956103087269030E-002   3.7956103087269030E-002  0.76481592499999995        1.1175384912629231E-014   9.2098781697488749E-017
 chl          62   1.4947667127743438E-005   3.9381458874678525E-004   3.7956103087269030E-002
 chl2c          63  0.72597904849114292        3.7855601011927406E-002  0.72597904999999996        1.1175384912629231E-014   1.9517877001874843E-006
 chl          63   2.8590114042032194E-004   3.9381458874678525E-004  0.72597904849114292     
 chl2c          64   2.5708982294816416E-002   2.5708982294816416E-002  0.48435739999999999        3.0659176887593760E-014   7.7258035726673280E-017
 chl          64   1.0124572289531511E-005   3.9381458874678525E-004   2.5708982294816416E-002
 chl2c          65  0.76379970807853770        3.7953597170552002E-002  0.76379975000000000        1.1175384912629231E-014   7.7759788624760214E-008
 chl          65   3.0079546792186393E-004   3.9381458874678525E-004  0.76379970807853770     
 chl2c          66   3.1840477731474713E-002   3.1840477731474713E-002  0.35213202499999996        9.1521725504830031E-015   5.3585783042530780E-017
 chl          66   1.2539244643321888E-005   3.9381458874678525E-004   3.1840477731474713E-002
 chl2c          67   3.7937587124568600E-002   3.7937587124568600E-002  0.75736760000000003        1.1175384912629231E-014   1.0783257051572532E-016
 chl          67   1.4940375271507318E-005   3.9381458874678525E-004   3.7937587124568600E-002
 chl2c          68  0.72590779851873566        3.7855407263856986E-002  0.72590779999999999        1.1175384912629231E-014   1.9877550922282991E-006
 chl          68   2.8587308114174010E-004   3.9381458874678525E-004  0.72590779851873566     
 chl2c          69  0.45524217441341486        2.1732330561541505E-002  0.45524217500000003        1.1175384912629231E-014   1.9741781622556357E-006
 chl          69   1.7928100969681125E-004   3.9381458874678525E-004  0.45524217441341486     
 chl2c          70   3.2658010878182209E-002   3.2658010878182209E-002  0.48694062500000002        9.1521725504830031E-015   1.0076810717134099E-016
 chl          70   1.2861201123279365E-005   3.9381458874678525E-004   3.2658010878182209E-002
 chl2c          71   4.3481058864416305E-002   4.3481058864416305E-002  0.23986107500000001        4.3016237416308721E-015   5.9244990468272619E-017
 chl          71   1.7123475314964869E-005   3.9381458874678525E-004   4.3481058864416305E-002
 chl2c          72   3.7549776402781669E-002   3.7549776402781669E-002  0.62790522500000001        1.1175384912629231E-014   1.2999070055923638E-016
 chl          72   1.4787649751595204E-005   3.9381458874678525E-004   3.7549776402781669E-002
 chl2c          73   3.1852614277819484E-002   3.1852614277819484E-002  0.35362212500000001        9.1521725504830031E-015   6.5667809287369451E-017
 chl          73   1.2544024192329460E-005   3.9381458874678525E-004   3.1852614277819484E-002
 chl2c          74  0.64719589856587056        3.7616827685877569E-002  0.64719590000000005        1.1175384912629231E-014   1.6319830869003565E-006
 chl          74   2.5487518663232445E-004   3.9381458874678525E-004  0.64719589856587056     
 chl2c          75   3.7826830779512356E-002   3.7826830779512356E-002  0.71554212500000003        1.1175384912629231E-014   1.0220966697389995E-016
 chl          75   1.4896757807027896E-005   3.9381458874678525E-004   3.7826830779512356E-002
 chl2c          76  0.55513977429473371        3.7257729557919804E-002  0.55513977500000000        1.1175384912629231E-014   2.4416534718942937E-006
 chl          76   2.1862214191086375E-004   3.9381458874678525E-004  0.55513977429473371     
 chl2c          77  0.52973029813944461        3.7138172437479272E-002  0.52973029999999999        1.1175384912629231E-014   8.4275149052157356E-007
 chl          77   2.0861551950849730E-004   3.9381458874678525E-004  0.52973029813944461     
 chl2c          78  0.45117492461109393        4.7515248899399322E-002  0.45117492500000000        4.3016237416308721E-015   1.1257646882087785E-006
 chl          78   1.7767926738857979E-004   3.9381458874678525E-004  0.45117492461109393     
 prod   2.6933099572720944E-007   4.0338394241754969E-008   10.000000000000000     
 dcdom   1.2045222476963508E-012  -2.3621157079195023E-010
 chl2c           1  0.60826437391756649        3.7477407714772232E-002  0.60826437499999997        1.7552160116871138E-015   2.9997435377181252E-007
 chl           1   1.4566624562222771E-004   2.3947850945807450E-004  0.60826437391756649     
 chl2c           2  0.48302389929572265        3.2640259920490348E-002  0.48302390000000001        1.4382692942352561E-015   2.3823400972923197E-007
 chl           2   1.1567384343596674E-004   2.3947850945807450E-004  0.48302389929572265     
 chl2c           3  0.10466863912157463        3.7922212503796585E-002  0.75128689999999998        1.7552160116871138E-015   1.0672717277225375E-016
 chl           3   2.5065889683839798E-005   2.3947850945807450E-004  0.10466863912157463     
 chl2c           4  0.77318742477499669        3.7976509103863923E-002  0.77318742499999993        1.7552160116871138E-015   2.3317461022558774E-006
 chl           4   1.8516177201684331E-004   2.3947850945807450E-004  0.77318742477499669     
 chl2c           5  0.48489679957667853        2.5710500362372445E-002  0.48489679999999996        4.8266799239041694E-015   1.3404384078943806E-006
 chl           5   1.1612236280361366E-004   2.3947850945807450E-004  0.48489679957667853     
 chl2c           6   7.5923246678048728E-002   3.1261039902252048E-002  0.29222855000000003        1.4382692942352561E-015   7.3763320776725804E-017
 chl           6   1.8181985947676815E-005   2.3947850945807450E-004   7.5923246678048728E-002
 chl2c           7  0.22770739994183020        4.3064391842467263E-002  0.22770740000000000        6.7558631117413907E-016   3.0109786147082367E-007
 chl           7   5.4531028730643133E-005   2.3947850945807450E-004  0.22770739994183020     
 chl2c           8  0.49578364921809970        4.7969800906495587E-002  0.49578364999999996        6.7558631117413907E-016   1.0619005712292253E-007
 chl           8   1.1872952932843538E-004   2.3947850945807450E-004  0.49578364921809970     
 chl2c           9  0.28700202488360554        2.4803669054600401E-002  0.28700202499999999        4.8266799239041694E-015   1.7078751295927950E-006
 chl           9   6.8730817130575064E-005   2.3947850945807450E-004  0.28700202488360554     
 chl2c          10  0.39094662480577363        2.5387016219684602E-002  0.39094662499999999        4.8266799239041694E-015   1.8990892127901212E-006
 chl          10   9.3623314986151766E-005   2.3947850945807450E-004  0.39094662480577363     
 chl2c          11   9.1378043163980058E-002   2.1820572217820047E-002  0.49737575000000001        1.7552160116871138E-015   9.8243416342306336E-017
 chl          11   2.1883077574105539E-005   2.3947850945807450E-004   9.1378043163980058E-002
 chl2c          12   4.5290941298723353E-002   4.5290941298723353E-002  0.30768942500000002        6.7558631117413907E-016   1.4724268053437667E-017
 chl          12   1.0846207114171417E-005   2.3947850945807450E-004   4.5290941298723353E-002
 chl2c          13   8.9232176526091139E-002   3.7935816987997487E-002  0.75666275000000005        1.7552160116871138E-015   8.8780649994692991E-017
 chl          13   2.1369188630168090E-005   2.3947850945807450E-004   8.9232176526091139E-002
 chl2c          14  0.11894198427594378        4.6856526101924839E-002  0.39804095000000000        6.7558631117413907E-016   5.7300122709810258E-017
 chl          14   2.8484049106388752E-005   2.3947850945807450E-004  0.11894198427594378     
 chl2c          15  0.25607262497467648        2.0954299823745293E-002  0.25607262500000000        1.7552160116871138E-015   2.2724909729687559E-006
 chl          15   6.1323890541952026E-005   2.3947850945807450E-004  0.25607262497467648     
 chl2c          16  0.10753519988635496        3.7823443882273475E-002  0.71433214999999994        1.7552160116871138E-015   1.1109845788284009E-016
 chl          16   2.5752369383060387E-005   2.3947850945807450E-004  0.10753519988635496     
 chl2c          17  0.10524928039034845        3.7542254757581245E-002  0.62580860000000005        1.7552160116871138E-015   1.1104295552438968E-016
 chl          17   2.5204940789415597E-005   2.3947850945807450E-004  0.10524928039034845     
 chl2c          18   3.9031756905475300E-002   2.5694475239060960E-002  0.47925950000000000        4.8266799239041694E-015   1.0254864508820463E-016
 chl          18   9.3472669652531305E-006   2.3947850945807450E-004   3.9031756905475300E-002
 chl2c          19  0.63367129977122372        3.7570220750293731E-002  0.63367130000000005        1.7552160116871138E-015   1.5403428131764968E-006
 chl          19   1.5175065835557335E-004   2.3947850945807450E-004  0.63367129977122372     
 chl2c          20   9.1309300180309388E-002   3.7020645196759419E-002  0.50678202500000002        1.7552160116871138E-015   9.7744937869309446E-017
 chl          20   2.1866615106840385E-005   2.3947850945807450E-004   9.1309300180309388E-002
 chl2c          21  0.71973184966093162        3.7838475073783531E-002  0.71973185000000006        1.7552160116871138E-015   1.3407711658144152E-006
 chl          21   1.7236031056630285E-004   2.3947850945807450E-004  0.71973184966093162     
 chl2c          22  0.64616892484096788        3.7613353106285476E-002  0.64616892500000001        1.7552160116871138E-015   2.3041361177725501E-006
 chl          22   1.5474357097904155E-004   2.3947850945807450E-004  0.64616892484096788     
 chl2c          23   3.2286562315070731E-002   3.2286562315070731E-002  0.41564179999999995        1.4382692942352561E-015   2.0261718346042080E-017
 chl          23   7.7319378187383783E-006   2.3947850945807450E-004   3.2286562315070731E-002
 chl2c          24   7.8169855878055458E-002   3.7348402796863071E-002  0.57597492500000003        1.7552160116871138E-015   7.9375075209128265E-017
 chl          24   1.8720000570229225E-005   2.3947850945807450E-004   7.8169855878055458E-002
 chl2c          25   4.5426679235459781E-002   4.5426679235459781E-002  0.31406487500000002        6.7558631117413907E-016   1.5568405331036305E-017
 chl          25   1.0878713432937972E-005   2.3947850945807450E-004   4.5426679235459781E-002
 chl2c          26   4.7955660680174553E-002   4.7955660680174553E-002  0.49427735000000000        6.7558631117413907E-016   1.4165854154394344E-017
 chl          26   1.1484350139765393E-005   2.3947850945807450E-004   4.7955660680174553E-002
 chl2c          27  0.10901472257218700        4.5333133499525620E-002  0.30964730000000001        6.7558631117413907E-016   5.6833165306928868E-017
 chl          27   2.6106683270572853E-005   2.3947850945807450E-004  0.10901472257218700     
 chl2c          28   6.1716938336642602E-002   3.1209236063453518E-002  0.28776342500000002        1.4382692942352561E-015   5.6500516631776581E-017
 chl          28   1.4779880401175066E-005   2.3947850945807450E-004   6.1716938336642602E-002
 chl2c          29  0.68676297478759407        3.7743217595736761E-002  0.68676297499999994        1.7552160116871138E-015   1.9487131158556645E-006
 chl          29   1.6446497355312623E-004   2.3947850945807450E-004  0.68676297478759407     
 chl2c          30   4.1601452003160559E-002   2.5380056985171612E-002  0.38930277499999999        4.8266799239041694E-015   1.1241082871941637E-016
 chl          30   9.9626537170085178E-006   2.3947850945807450E-004   4.1601452003160559E-002
 chl2c          31  0.63559384977114375        3.7576959810037038E-002  0.63559385000000002        1.7552160116871138E-015   1.5491629768426863E-006
 chl          31   1.5221106776391283E-004   2.3947850945807450E-004  0.63559384977114375     
 chl2c          32  0.24722667497814643        2.0893126428578448E-002  0.24722667500000001        1.7552160116871138E-015   2.4545335706495658E-006
 chl          32   5.9205475622042347E-005   2.3947850945807450E-004  0.24722667497814643     
 chl2c          33  0.60343137480796583        3.7458922634011876E-002  0.60343137499999999        1.7552160116871138E-015   1.6640938238460936E-006
 chl          33   1.4450884619924835E-004   2.3947850945807450E-004  0.60343137480796583     
 chl2c          34  0.38241019953164079        2.5350269098008315E-002  0.38241020000000003        4.8266799239041694E-015   7.5352616416655538E-007
 chl          34   9.1579024585402194E-005   2.3947850945807450E-004  0.38241019953164079     
 chl2c          35   3.1503506125315085E-002   2.5740370148566064E-002  0.49574644999999995        4.8266799239041694E-015   8.1187972555687209E-017
 chl          35   7.5444126895937768E-006   2.3947850945807450E-004   3.1503506125315085E-002
 chl2c          36   8.4648784919658299E-002   3.7770393924465726E-002  0.69587337500000002        1.7552160116871138E-015   8.4576694376822406E-017
 chl          36   2.0271564839996904E-005   2.3947850945807450E-004   8.4648784919658299E-002
 chl2c          37   6.7486024468055281E-002   2.1353674699533250E-002  0.33194060000000003        1.7552160116871138E-015   7.4340197509526412E-017
 chl          37   1.6161452548861022E-005   2.3947850945807450E-004   6.7486024468055281E-002
 chl2c          38   9.7570709265090996E-002   2.1543295686358745E-002  0.38455722500000000        1.7552160116871138E-015   1.1474123552093265E-016
 chl          38   2.3366088021571131E-005   2.3947850945807450E-004   9.7570709265090996E-002
 chl2c          39   3.5400676742434432E-002   2.5670077108751441E-002  0.47091117500000002        4.8266799239041694E-015   9.2378400201523271E-017
 chl          39   8.4777013000853227E-006   2.3947850945807450E-004   3.5400676742434432E-002
 chl2c          40  0.10661573094236426        3.7687445774703773E-002  0.66875547499999999        1.7552160116871138E-015   1.1131275303341534E-016
 chl          40   2.5532176330860505E-005   2.3947850945807450E-004  0.10661573094236426     
 chl2c          41   2.6105285712887262E-002   2.5582381488167241E-002  0.44304987499999998        4.8266799239041694E-015   6.6945475578795021E-017
 chl          41   6.2516549114994092E-006   2.3947850945807450E-004   2.6105285712887262E-002
 chl2c          42   9.3832132943296676E-002   3.7949995630725070E-002  0.76234377499999995        1.7552160116871138E-015   9.3906152797457294E-017
 chl          42   2.2470779336532578E-005   2.3947850945807450E-004   9.3832132943296676E-002
 chl2c          43  0.29539924976544901        2.1185090152268007E-002  0.29539925000000000        1.7552160116871138E-015   3.2649915284036681E-007
 chl          43   7.0741772028863194E-005   2.3947850945807450E-004  0.29539924976544901     
 chl2c          44   7.9742082112446100E-002   3.7536352708156646E-002  0.62417262500000004        1.7552160116871138E-015   8.0232510857558133E-017
 chl          44   1.9096514965371975E-005   2.3947850945807450E-004   7.9742082112446100E-002
 chl2c          45   4.8286836206669070E-002   4.6544927192009838E-002  0.37662252499999999        6.7558631117413907E-016   1.8709741875126061E-017
 chl          45   1.1563659561219293E-005   2.3947850945807450E-004   4.8286836206669070E-002
 chl2c          46  0.51876034987500208        3.7083195475449568E-002  0.51876034999999998        1.7552160116871138E-015   1.8894325005355080E-006
 chl          46   1.2423195535401471E-004   2.3947850945807450E-004  0.51876034987500208     
 chl2c          47   9.8226812963830359E-002   3.7519784612651236E-002  0.61962282499999999        1.7552160116871138E-015   1.0244489744660785E-016
 chl          47   2.3523210757395163E-005   2.3947850945807450E-004   9.8226812963830359E-002
 chl2c          48   9.7017271530240909E-002   3.7823212136301673E-002  0.71424949999999998        1.7552160116871138E-015   9.8526029954039049E-017
 chl          48   2.3233551577751378E-005   2.3947850945807450E-004   9.7017271530240909E-002
 chl2c          49   8.7352143293508211E-002   3.7152990741888416E-002  0.53276120000000005        1.7552160116871138E-015   9.1695429005763214E-017
 chl          49   2.0918961073897486E-005   2.3947850945807450E-004   8.7352143293508211E-002
 chl2c          50  0.38132569993078769        2.1533072915600981E-002  0.38132569999999999        1.7552160116871138E-015   1.8437817257727260E-006
 chl          50   9.1319310237482010E-005   2.3947850945807450E-004  0.38132569993078769     
 chl2c          51   8.5572607295645253E-002   2.0700971146093840E-002  0.22275920000000002        1.7552160116871138E-015   1.2194368670373220E-016
 chl          51   2.0492800445602276E-005   2.3947850945807450E-004   8.5572607295645253E-002
 chl2c          52  0.10395285971605987        3.7581825176985564E-002  0.63698869999999996        1.7552160116871138E-015   1.0902154555466093E-016
 chl          52   2.4894475898706336E-005   2.3947850945807450E-004  0.10395285971605987     
 chl2c          53   9.6929779209218470E-002   3.7925801262726190E-002  0.75269794999999995        1.7552160116871138E-015   9.7640096440497055E-017
 chl          53   2.3212599047123898E-005   2.3947850945807450E-004   9.6929779209218470E-002
 chl2c          54   7.7614887019083340E-002   3.7082433371327092E-002  0.51861124999999997        1.7552160116871138E-015   8.0103691717514137E-017
 chl          54   1.8587097455086932E-005   2.3947850945807450E-004   7.7614887019083340E-002
 chl2c          55  0.57808279987165689        3.7357235588660491E-002  0.57808280000000001        1.7552160116871138E-015   2.2851157371662262E-006
 chl          55   1.3843840725661478E-004   2.3947850945807450E-004  0.57808279987165689     
 chl2c          56  0.10361248311871125        3.7507394187257688E-002  0.61626080000000005        1.7552160116871138E-015   1.0930943909593157E-016
 chl          56   2.4812963018518878E-005   2.3947850945807450E-004  0.10361248311871125     
 chl2c          57  0.68163462465728941        3.7727617852646313E-002  0.68163462500000005        1.7552160116871138E-015   1.1898065786050409E-006
 chl          57   1.6323684390794174E-004   2.3947850945807450E-004  0.68163462465728941     
 chl2c          58  0.69416802477053197        3.7765358178394853E-002  0.69416802499999997        1.7552160116871138E-015   1.8429250459073549E-006
 chl          58   1.6623832388550273E-004   2.3947850945807450E-004  0.69416802477053197     
 chl2c          59  0.53705127375108530        3.7173699120809672E-002  0.53705127500000005        1.7552160116871138E-015   2.0267456859667981E-007
 chl          59   1.2861223854047024E-004   2.3947850945807450E-004  0.53705127375108530     
 chl2c          60  0.64452154970190001        3.7607757740906807E-002  0.64452155000000000        1.7552160116871138E-015   1.2229636019361092E-006
 chl          60   1.5434906003621929E-004   2.3947850945807450E-004  0.64452154970190001     
 chl2c          61   9.4372980170926893E-002   3.7805373434125003E-002  0.70794139999999994        1.7552160116871138E-015   9.5561411937767541E-017
 chl          61   2.2600300624449993E-005   2.3947850945807450E-004   9.4372980170926893E-002
 chl2c          62   7.9624878225478854E-002   3.7956103087269030E-002  0.76481592499999995        1.7552160116871138E-015   7.7999999563004312E-017
 chl          62   1.9068447153218367E-005   2.3947850945807450E-004   7.9624878225478854E-002
 chl2c          63  0.72597904971975813        3.7855601011927406E-002  0.72597904999999996        1.7552160116871138E-015   1.6505012605371273E-006
 chl          63   1.7385638072467703E-004   2.3947850945807450E-004  0.72597904971975813     
 chl2c          64   2.5708982294816416E-002   2.5708982294816416E-002  0.48435739999999999        4.8266799239041694E-015   6.5135643337255000E-017
 chl          64   6.1567487596466624E-006   2.3947850945807450E-004   2.5708982294816416E-002
 chl2c          65  0.76379974636321302        3.7953597170552002E-002  0.76379975000000000        1.7552160116871138E-015   1.4078025426527967E-007
 chl          65   1.8291362478351761E-004   2.3947850945807450E-004  0.76379974636321302     
 chl2c          66   3.1840477731474713E-002   3.1840477731474713E-002  0.35213202499999996        1.4382692942352561E-015   1.5478601896132425E-017
 chl          66   7.6251101475665775E-006   2.3947850945807450E-004   3.1840477731474713E-002
 chl2c          67   9.1357848582575937E-002   3.7937587124568600E-002  0.75736760000000003        1.7552160116871138E-015   9.1174328675407120E-017
 chl          67   2.1878241405851749E-005   2.3947850945807450E-004   9.1357848582575937E-002
 chl2c          68  0.72590779973807329        3.7855407263856986E-002  0.72590779999999999        1.7552160116871138E-015   1.7655647960128078E-006
 chl          68   1.7383931788526424E-004   2.3947850945807450E-004  0.72590779973807329     
 chl2c          69  0.45524217488715696        2.1732330561541505E-002  0.45524217500000003        1.7552160116871138E-015   1.6117984303406330E-006
 chl          69   1.0902071748442842E-004   2.3947850945807450E-004  0.45524217488715696     
 chl2c          70   8.0066873266590358E-002   3.2658010878182209E-002  0.48694062500000002        1.4382692942352561E-015   6.8909550560318116E-017
 chl          70   1.9174295466851611E-005   2.3947850945807450E-004   8.0066873266590358E-002
 chl2c          71   4.3481058864416305E-002   4.3481058864416305E-002  0.23986107500000001        6.7558631117413907E-016   1.7252850080920000E-017
 chl          71   1.0412779166509214E-005   2.3947850945807450E-004   4.3481058864416305E-002
 chl2c          72  0.10420984393054454        3.7549776402781669E-002  0.62790522500000001        1.7552160116871138E-015   1.0965404965671505E-016
 chl          72   2.4956018095345378E-005   2.3947850945807450E-004  0.10420984393054454     
 chl2c          73   3.1852614277819484E-002   3.1852614277819484E-002  0.35362212500000001        1.4382692942352561E-015   1.9301885608587351E-017
 chl          73   7.6280165895951918E-006   2.3947850945807450E-004   3.1852614277819484E-002
 chl2c          74  0.64719589974864034        3.7616827685877569E-002  0.64719590000000005        1.7552160116871138E-015   1.4624349712037691E-006
 chl          74   1.5498950939918179E-004   2.3947850945807450E-004  0.64719589974864034     
 chl2c          75   8.6604937099847665E-002   3.7826830779512356E-002  0.71554212500000003        1.7552160116871138E-015   8.6471134878132424E-017
 chl          75   2.0740021248381816E-005   2.3947850945807450E-004   8.6604937099847665E-002
 chl2c          76  0.55513977486727961        3.7257729557919804E-002  0.55513977500000000        1.7552160116871138E-015   2.0378280250160311E-006
 chl          76   1.3294404582610717E-004   2.3947850945807450E-004  0.55513977486727961     
 chl2c          77  0.52973029969363206        3.7138172437479272E-002  0.52973029999999999        1.7552160116871138E-015   8.0383507528429497E-007
 chl          77   1.2685902258541010E-004   2.3947850945807450E-004  0.52973029969363206     
 chl2c          78  0.45117492489153438        4.7515248899399322E-002  0.45117492500000000        6.7558631117413907E-016   6.3394048034470394E-007
 chl          78   1.0804669851788336E-004   2.3947850945807450E-004  0.45117492489153438     
 prod   7.2263491819613813E-008   6.3341018646507906E-009   10.000000000000000     
 dcdom   1.2284190402469353E-012  -2.1818476284688283E-010
 chl2c           1  0.60826437484682327        3.7477407714772232E-002  0.60826437499999997        3.0237395108571888E-016   3.6517944376036965E-007
 chl           1   1.0255525909421949E-004   1.6860309979529141E-004  0.60826437484682327     
 chl2c           2  0.48302389952105274        3.2640259920490348E-002  0.48302390000000001        2.4732004765475891E-016   6.0239150629761759E-008
 chl           2   8.1439326734458869E-005   1.6860309979529141E-004  0.48302389952105274     
 chl2c           3  0.34386949522127352        3.7922212503796585E-002  0.75128689999999998        3.0237395108571888E-016   9.5868132730648454E-017
 chl           3   5.7977462819348862E-005   1.6860309979529141E-004  0.34386949522127352     
 chl2c           4  0.77318742495667148        3.7976509103863923E-002  0.77318742499999993        3.0237395108571888E-016   2.0859817550693034E-006
 chl           4   1.3036179657043408E-004   1.6860309979529141E-004  0.77318742495667148     
 chl2c           5  0.48489679991088280        2.5710500362372445E-002  0.48489679999999996        8.3628524599081403E-016   1.1032186242419847E-006
 chl           5   8.1755103545792023E-005   1.6860309979529141E-004  0.48489679991088280     
 chl2c           6  0.17771500068301263        3.1261039902252048E-002  0.29222855000000003        2.4732004765475891E-016   5.6081443149449132E-017
 chl           6   2.9963299995278260E-005   1.6860309979529141E-004  0.17771500068301263     
 chl2c           7  0.22770739996365180        4.3064391842467263E-002  0.22770740000000000        1.1593969038361643E-016   8.2693940864125311E-008
 chl           7   3.8392173480197920E-005   1.6860309979529141E-004  0.22770739996365180     
 chl2c           8  0.49578364960897892        4.7969800906495587E-002  0.49578364999999996        1.1593969038361643E-016   3.6440674363325694E-008
 chl           8   8.3590660151896463E-005   1.6860309979529141E-004  0.49578364960897892     
 chl2c           9  0.28700202497833477        2.4803669054600401E-002  0.28700202499999999        8.3628524599081403E-016   1.5897569288068724E-006
 chl           9   4.8389431058872896E-005   1.6860309979529141E-004  0.28700202497833477     
 chl2c          10  0.39094662496080584        2.5387016219684602E-002  0.39094662499999999        8.3628524599081403E-016   1.6305657068536224E-006
 chl          10   6.5914812822899109E-005   1.6860309979529141E-004  0.39094662496080584     
 chl2c          11  0.26841913911592868        2.1820572217820047E-002  0.49737575000000001        3.0237395108571888E-016   8.8157502372475771E-017
 chl          11   4.5256298899329131E-005   1.6860309979529141E-004  0.26841913911592868     
 chl2c          12   5.7470924985973941E-002   4.5290941298723353E-002  0.30768942500000002        1.1593969038361643E-016   4.0967879138669179E-018
 chl          12   9.6897761007378717E-006   1.6860309979529141E-004   5.7470924985973941E-002
 chl2c          13  0.31084643582133026        3.7935816987997487E-002  0.75666275000000005        3.0237395108571888E-016   7.9763952968588325E-017
 chl          13   5.2409672639794394E-005   1.6860309979529141E-004  0.31084643582133026     
 chl2c          14  0.26025359621226363        4.6856526101924839E-002  0.39804095000000000        1.1593969038361643E-016   4.3583015376320379E-017
 chl          14   4.3879563054259763E-005   1.6860309979529141E-004  0.26025359621226363     
 chl2c          15  0.25607262499499023        2.0954299823745293E-002  0.25607262500000000        3.0237395108571888E-016   1.9788815769067855E-006
 chl          15   4.3174638346872571E-005   1.6860309979529141E-004  0.25607262499499023     
 chl2c          16  0.34305640313834940        3.7823443882273475E-002  0.71433214999999994        3.0237395108571888E-016   9.9789196451309747E-017
 chl          16   5.7840372973748845E-005   1.6860309979529141E-004  0.34305640313834940     
 chl2c          17  0.32115591243771358        3.7542254757581245E-002  0.62580860000000005        3.0237395108571888E-016   9.9739414445876245E-017
 chl          17   5.4147882354583694E-005   1.6860309979529141E-004  0.32115591243771358     
 chl2c          18  0.15080165816661745        2.5694475239060960E-002  0.47925950000000000        8.3628524599081403E-016   9.2007165514201055E-017
 chl          18   2.5425627021161624E-005   1.6860309979529141E-004  0.15080165816661745     
 chl2c          19  0.63367129995669591        3.7570220750293731E-002  0.63367130000000005        3.0237395108571888E-016   1.4018891767298474E-006
 chl          19   1.0683894542401084E-004   1.6860309979529141E-004  0.63367129995669591     
 chl2c          20  0.27063579986036440        3.7020645196759419E-002  0.50678202500000002        3.0237395108571888E-016   8.7809159234856155E-017
 chl          20   4.5630034772035534E-005   1.6860309979529141E-004  0.27063579986036440     
 chl2c          21  0.71973184993854944        3.7838475073783531E-002  0.71973185000000006        3.0237395108571888E-016   1.2744701027938649E-006
 chl          21   1.2134902092103896E-004   1.6860309979529141E-004  0.71973184993854944     
 chl2c          22  0.64616892496913025        3.7613353106285476E-002  0.64616892500000001        3.0237395108571888E-016   2.0449043282971054E-006
 chl          22   1.0894608374118644E-004   1.6860309979529141E-004  0.64616892496913025     
 chl2c          23   4.1360309564807976E-002   3.2286562315070731E-002  0.41564179999999995        2.4732004765475891E-016   5.6798121599444689E-018
 chl          23   6.9734764011194652E-006   1.6860309979529141E-004   4.1360309564807976E-002
 chl2c          24  0.25933513972811278        3.7348402796863071E-002  0.57597492500000003        3.0237395108571888E-016   7.1320411627501269E-017
 chl          24   4.3724708444004846E-005   1.6860309979529141E-004  0.25933513972811278     
 chl2c          25   6.0416776788315238E-002   4.5426679235459781E-002  0.31406487500000002        1.1593969038361643E-016   4.3365808723771180E-018
 chl          25   1.0186455846150159E-005   1.6860309979529141E-004   6.0416776788315238E-002
 chl2c          26   5.9729768572009810E-002   4.7955660680174553E-002  0.49427735000000000        1.1593969038361643E-016   3.9384591485061256E-018
 chl          26   1.0070624131296231E-005   1.6860309979529141E-004   5.9729768572009810E-002
 chl2c          27  0.21879466245394574        4.5333133499525620E-002  0.30964730000000001        1.1593969038361643E-016   4.3228346239448835E-017
 chl          27   3.6889458308399714E-005   1.6860309979529141E-004  0.21879466245394574     
 chl2c          28  0.15741788077516874        3.1209236063453518E-002  0.28776342500000002        2.4732004765475891E-016   4.2975683390313193E-017
 chl          28   2.6541142661899061E-005   1.6860309979529141E-004  0.15741788077516874     
 chl2c          29  0.68676297495817595        3.7743217595736761E-002  0.68676297499999994        3.0237395108571888E-016   1.7049147567384778E-006
 chl          29   1.1579036640258456E-004   1.6860309979529141E-004  0.68676297495817595     
 chl2c          30  0.14889475863588461        2.5380056985171612E-002  0.38930277499999999        8.3628524599081403E-016   1.0081900423193246E-016
 chl          30   2.5104117849281880E-005   1.6860309979529141E-004  0.14889475863588461     
 chl2c          31  0.63559384995218393        3.7576959810037038E-002  0.63559385000000002        3.0237395108571888E-016   1.2773227146729948E-006
 chl          31   1.0716309331276155E-004   1.6860309979529141E-004  0.63559384995218393     
 chl2c          32  0.24722667499575093        2.0893126428578448E-002  0.24722667500000001        3.0237395108571888E-016   2.1747574334924327E-006
 chl          32   4.1683183756366670E-005   1.6860309979529141E-004  0.24722667499575093     
 chl2c          33  0.60343137496338950        3.7458922634011876E-002  0.60343137499999999        3.0237395108571888E-016   1.5037106884069668E-006
 chl          33   1.0174040033256228E-004   1.6860309979529141E-004  0.60343137496338950     
 chl2c          34  0.38241019988796537        2.5350269098008315E-002  0.38241020000000003        8.3628524599081403E-016   5.4579660776032367E-007
 chl          34   6.4475545094447968E-005   1.6860309979529141E-004  0.38241019988796537     
 chl2c          35  0.12897073698270148        2.5740370148566064E-002  0.49574644999999995        8.3628524599081403E-016   7.2891126763326835E-017
 chl          35   2.1744866038166698E-005   1.6860309979529141E-004  0.12897073698270148     
 chl2c          36  0.29183446253116185        3.7770393924465726E-002  0.69587337500000002        3.0237395108571888E-016   7.5990269016687967E-017
 chl          36   4.9204195009846716E-005   1.6860309979529141E-004  0.29183446253116185     
 chl2c          37  0.18948802723128241        2.1353674699533250E-002  0.33194060000000003        3.0237395108571888E-016   6.6755373623542904E-017
 chl          37   3.1948268765288806E-005   1.6860309979529141E-004  0.18948802723128241     
 chl2c          38  0.24572090378779612        2.1543295686358745E-002  0.38455722500000000        3.0237395108571888E-016   1.0289975978125387E-016
 chl          38   4.1429306063122992E-005   1.6860309979529141E-004  0.24572090378779612     
 chl2c          39  0.13953134291946509        2.5670077108751441E-002  0.47091117500000002        8.3628524599081403E-016   8.2910424062090986E-017
 chl          39   2.3525416934821601E-005   1.6860309979529141E-004  0.13953134291946509     
 chl2c          40  0.33250585803022520        3.7687445774703773E-002  0.66875547499999999        3.0237395108571888E-016   9.9981404314472076E-017
 chl          40   5.6061518363989059E-005   1.6860309979529141E-004  0.33250585803022520     
 chl2c          41  0.10855971970950994        2.5582381488167241E-002  0.44304987499999998        8.3628524599081403E-016   6.0126016375385502E-017
 chl          41   1.8303505255931366E-005   1.6860309979529141E-004  0.10855971970950994     
 chl2c          42  0.32218377613373961        3.7949995630725070E-002  0.76234377499999995        3.0237395108571888E-016   8.4364227264776427E-017
 chl          42   5.4321183359900726E-005   1.6860309979529141E-004  0.32218377613373961     
 chl2c          43  0.29539924997031575        2.1185090152268007E-002  0.29539925000000000        3.0237395108571888E-016   4.4443377479388173E-007
 chl          43   4.9805229222199383E-005   1.6860309979529141E-004  0.29539924997031575     
 chl2c          44  0.27032056524766285        3.7536352708156646E-002  0.62417262500000004        3.0237395108571888E-016   7.2090237374068906E-017
 chl          44   4.5576885239171285E-005   1.6860309979529141E-004  0.27032056524766285     
 chl2c          45   7.2826089397468360E-002   4.6544927192009838E-002  0.37662252499999999        1.1593969038361643E-016   5.2337472674460454E-018
 chl          45   1.2278704418382172E-005   1.6860309979529141E-004   7.2826089397468360E-002
 chl2c          46  0.51876034997481291        3.7083195475449568E-002  0.51876034999999998        3.0237395108571888E-016   1.6153592278476793E-006
 chl          46   8.7464603056643686E-005   1.6860309979529141E-004  0.51876034997481291     
 chl2c          47  0.30705442835567781        3.7519784612651236E-002  0.61962282499999999        3.0237395108571888E-016   9.2026326622566602E-017
 chl          47   5.1770328426638506E-005   1.6860309979529141E-004  0.30705442835567781     
 chl2c          48  0.32172918263620293        3.7823212136301673E-002  0.71424949999999998        3.0237395108571888E-016   8.8510060686284382E-017
 chl          48   5.4244537487069261E-005   1.6860309979529141E-004  0.32172918263620293     
 chl2c          49  0.26937844841613573        3.7152990741888416E-002  0.53276120000000005        3.0237395108571888E-016   8.2380132145804913E-017
 chl          49   4.5418041421006495E-005   1.6860309979529141E-004  0.26937844841613573     
 chl2c          50  0.38132569998661259        2.1533072915600981E-002  0.38132569999999999        3.0237395108571888E-016   1.6421396676594191E-006
 chl          50   6.4292695049352193E-005   1.6860309979529141E-004  0.38132569998661259     
 chl2c          51  0.17029851137100546        2.0700971146093840E-002  0.22275920000000002        3.0237395108571888E-016   1.0932686465093849E-016
 chl          51   2.8712856907675204E-005   1.6860309979529141E-004  0.17029851137100546     
 chl2c          52  0.32115386259838674        3.7581825176985564E-002  0.63698869999999996        3.0237395108571888E-016   9.7926272783785366E-017
 chl          52   5.4147536745319105E-005   1.6860309979529141E-004  0.32115386259838674     
 chl2c          53  0.32763590048279650        3.7925801262726190E-002  0.75269794999999995        3.0237395108571888E-016   8.7715079975669456E-017
 chl          53   5.5240428425621104E-005   1.6860309979529141E-004  0.32763590048279650     
 chl2c          54  0.24821365248916949        3.7082433371327092E-002  0.51861124999999997        3.0237395108571888E-016   7.1974581677301488E-017
 chl          54   4.1849591221185228E-005   1.6860309979529141E-004  0.24821365248916949     
 chl2c          55  0.57808279997508594        3.7357235588660491E-002  0.57808280000000001        3.0237395108571888E-016   2.0279128547776897E-006
 chl          55   9.7466552014140905E-005   1.6860309979529141E-004  0.57808279997508594     
 chl2c          56  0.31620406345120666        3.7507394187257688E-002  0.61626080000000005        3.0237395108571888E-016   9.8184512394611869E-017
 chl          56   5.3312985265740455E-005   1.6860309979529141E-004  0.31620406345120666     
 chl2c          57  0.68163462492435822        3.7727617852646313E-002  0.68163462500000005        3.0237395108571888E-016   9.2865674361701734E-007
 chl          57   1.1492571069004760E-004   1.6860309979529141E-004  0.68163462492435822     
 chl2c          58  0.69416802495723240        3.7765358178394853E-002  0.69416802499999997        3.0237395108571888E-016   1.7034511513608303E-006
 chl          58   1.1703888078656460E-004   1.6860309979529141E-004  0.69416802495723240     
 chl2c          59  0.53705127484425252        3.7173699120809672E-002  0.53705127500000005        3.0237395108571888E-016   2.7997863298526450E-007
 chl          59   9.0548509687753985E-005   1.6860309979529141E-004  0.53705127484425252     
 chl2c          60  0.64452154994541899        3.7607757740906807E-002  0.64452155000000000        3.0237395108571888E-016   1.1506626412024372E-006
 chl          60   1.0866833120566338E-004   1.6860309979529141E-004  0.64452154994541899     
 chl2c          61  0.31509838742539603        3.7805373434125003E-002  0.70794139999999994        3.0237395108571888E-016   8.5849710956448348E-017
 chl          61   5.3126564860419444E-005   1.6860309979529141E-004  0.31509838742539603     
 chl2c          62  0.28862744164791099        3.7956103087269030E-002  0.76481592499999995        3.0237395108571888E-016   7.0085799761823159E-017
 chl          62   4.8663481347822385E-005   1.6860309979529141E-004  0.28862744164791099     
 chl2c          63  0.72597904994605411        3.7855601011927406E-002  0.72597904999999996        3.0237395108571888E-016   1.4770811743033823E-006
 chl          63   1.2240231820734540E-004   1.6860309979529141E-004  0.72597904994605411     
 chl2c          64  0.10855449190297280        2.5708982294816416E-002  0.48435739999999999        8.3628524599081403E-016   5.8502987055243198E-017
 chl          64   1.8302623831544075E-005   1.6860309979529141E-004  0.10855449190297280     
 chl2c          65  0.76379974956122854        3.7953597170552002E-002  0.76379975000000000        3.0237395108571888E-016   2.0101805999376911E-007
 chl          65   1.2877900539889041E-004   1.6860309979529141E-004  0.76379974956122854     
 chl2c          66   3.1840477731474713E-002   3.1840477731474713E-002  0.35213202499999996        2.4732004765475891E-016   4.3110446109985675E-018
 chl          66   5.3684032444895847E-006   1.6860309979529141E-004   3.1840477731474713E-002
 chl2c          67  0.31584824391039368        3.7937587124568600E-002  0.75736760000000003        3.0237395108571888E-016   8.1912431966368177E-017
 chl          67   5.3252992988191650E-005   1.6860309979529141E-004  0.31584824391039368     
 chl2c          68  0.72590779995184695        3.7855407263856986E-002  0.72590779999999999        3.0237395108571888E-016   1.6544496722839610E-006
 chl          68   1.2239030523746169E-004   1.6860309979529141E-004  0.72590779995184695     
 chl2c          69  0.45524217497756009        2.1732330561541505E-002  0.45524217500000003        3.0237395108571888E-016   1.3962945404741893E-006
 chl          69   7.6755241858767083E-005   1.6860309979529141E-004  0.45524217497756009     
 chl2c          70  0.22656924546396384        3.2658010878182209E-002  0.48694062500000002        2.4732004765475891E-016   5.2397799521189725E-017
 chl          70   3.8200277103504571E-005   1.6860309979529141E-004  0.22656924546396384     
 chl2c          71   6.1712290126125321E-002   4.3481058864416305E-002  0.23986107500000001        1.1593969038361643E-016   4.8167123919033562E-018
 chl          71   1.0404883410731085E-005   1.6860309979529141E-004   6.1712290126125321E-002
 chl2c          72  0.31973504880926912        3.7549776402781669E-002  0.62790522500000001        3.0237395108571888E-016   9.8493623477302199E-017
 chl          72   5.3908320342441571E-005   1.6860309979529141E-004  0.31973504880926912     
 chl2c          73   3.8892159049928314E-002   3.1852614277819484E-002  0.35362212500000001        2.4732004765475891E-016   5.4037184615590178E-018
 chl          73   6.5573385735494092E-006   1.6860309979529141E-004   3.8892159049928314E-002
 chl2c          74  0.64719589995408211        3.7616827685877569E-002  0.64719590000000005        3.0237395108571888E-016   1.3791272831565351E-006
 chl          74   1.0911923490706155E-004   1.6860309979529141E-004  0.64719589995408211     
 chl2c          75  0.29908342622001810        3.7826830779512356E-002  0.71554212500000003        3.0237395108571888E-016   7.7690871804090405E-017
 chl          75   5.0426392758091391E-005   1.6860309979529141E-004  0.29908342622001810     
 chl2c          76  0.55513977497421696        3.7257729557919804E-002  0.55513977500000000        3.0237395108571888E-016   1.8071125559109911E-006
 chl          76   9.3598286880313525E-005   1.6860309979529141E-004  0.55513977497421696     
 chl2c          77  0.52973029994691245        3.7138172437479272E-002  0.52973029999999999        3.0237395108571888E-016   7.9915572694936620E-007
 chl          77   8.9314170626538932E-005   1.6860309979529141E-004  0.52973029994691245     
 chl2c          78  0.45117492496891087        4.7515248899399322E-002  0.45117492500000000        1.1593969038361643E-016   3.7956272953287784E-007
 chl          78   7.6069490899666396E-005   1.6860309979529141E-004  0.45117492496891087     
 prod   1.9715540277464245E-008   1.0872360587970642E-009   10.000000000000000     
 dcdom   1.2346780347356583E-012  -1.9297500977232132E-010
 chl2c           1  0.60826437499183661        3.7477407714772232E-002  0.60826437499999997        5.8366911850854362E-017   1.3226668671041131E-006
 chl           1   7.6384435846966366E-005   1.2557769119388507E-004  0.60826437499183661     
 chl2c           2  0.48302389985625921        3.2640259920490348E-002  0.48302390000000001        4.7524318808195772E-017   3.8569416191009053E-008
 chl           2   6.0657026135415384E-005   1.2557769119388507E-004  0.48302389985625921     
 chl2c           3  0.68750458984572471        3.7922212503796585E-002  0.75128689999999998        5.8366911850854362E-017   2.3632947659577463E-016
 chl           3   8.6335239078025029E-005   1.2557769119388507E-004  0.68750458984572471     
 chl2c           4  0.77318742499654602        3.7976509103863923E-002  0.77318742499999993        5.8366911850854362E-017   5.0512288558380741E-006
 chl           4   9.7095091691211432E-005   1.2557769119388507E-004  0.77318742499654602     
 chl2c           5  0.48489679999115043        2.5710500362372445E-002  0.48489679999999996        1.6306443929548999E-016   2.1662534966630838E-006
 chl           5   6.0892220610191742E-005   1.2557769119388507E-004  0.48489679999115043     
 chl2c           6  0.25347851077554823        3.1261039902252048E-002  0.29222855000000003        4.7524318808195772E-017   4.5423181400372494E-017
 chl           6   3.1831246150457663E-005   1.2557769119388507E-004  0.25347851077554823     
 chl2c           7  0.22770739999092032        4.3064391842467263E-002  0.22770740000000000        2.2194853359340827E-017   6.3373110276743991E-008
 chl           7   2.8594969558622259E-005   1.2557769119388507E-004  0.22770739999092032     
 chl2c           8  0.49578364992600504        4.7969800906495587E-002  0.49578364999999996        2.2194853359340827E-017   3.6864219857515541E-008
 chl           8   6.2259366089385086E-005   1.2557769119388507E-004  0.49578364992600504     
 chl2c           9  0.28700202499820021        2.4803669054600401E-002  0.28700202499999999        1.6306443929548999E-016   3.7315173911328616E-006
 chl           9   3.6041051667243667E-005   1.2557769119388507E-004  0.28700202499820021     
 chl2c          10  0.39094662499628591        2.5387016219684602E-002  0.39094662499999999        1.6306443929548999E-016   3.3551894664871081E-006
 chl          10   4.9094174547075179E-005   1.2557769119388507E-004  0.39094662499628591     
 chl2c          11  0.46336889454488728        2.1820572217820047E-002  0.49737575000000001        5.8366911850854362E-017   1.9777970662408268E-016
 chl          11   5.8188795948009751E-005   1.2557769119388507E-004  0.46336889454488728     
 chl2c          12  0.14891737923352028        4.5290941298723353E-002  0.30768942500000002        2.2194853359340827E-017   3.2026258034594287E-018
 chl          12   1.8700700662789683E-005   1.2557769119388507E-004  0.14891737923352028     
 chl2c          13  0.68214713632427060        3.7935816987997487E-002  0.75666275000000005        5.8366911850854362E-017   2.0214818780294408E-016
 chl          13   8.5662462434122266E-005   1.2557769119388507E-004  0.68214713632427060     
 chl2c          14  0.35362304427017022        4.6856526101924839E-002  0.39804095000000000        2.2194853359340827E-017   3.5166773071736804E-017
 chl          14   4.4407165452400983E-005   1.2557769119388507E-004  0.35362304427017022     
 chl2c          15  0.25607262499952882        2.0954299823745293E-002  0.25607262500000000        5.8366911850854362E-017   4.0613513033321604E-006
 chl          15   3.2157009025398366E-005   1.2557769119388507E-004  0.25607262499952882     
 chl2c          16  0.65818434919223034        3.7823443882273475E-002  0.71433214999999994        5.8366911850854362E-017   2.4437215435091299E-016
 chl          16   8.2653270951510112E-005   1.2557769119388507E-004  0.65818434919223034     
 chl2c          17  0.58227402829959063        3.7542254757581245E-002  0.62580860000000005        5.8366911850854362E-017   2.4427070746484446E-016
 chl          17   7.3120628116025491E-005   1.2557769119388507E-004  0.58227402829959063     
 chl2c          18  0.40231240931318568        2.5694475239060960E-002  0.47925950000000000        1.6306443929548999E-016   2.0430134255267201E-016
 chl          18   5.0521463500199125E-005   1.2557769119388507E-004  0.40231240931318568     
 chl2c          19  0.63367129999678440        3.7570220750293731E-002  0.63367130000000005        5.8366911850854362E-017   3.6441916441343508E-006
 chl          19   7.9574978829423894E-005   1.2557769119388507E-004  0.63367129999678440     
 chl2c          20  0.47478570958821181        3.7020645196759419E-002  0.50678202500000002        5.8366911850854362E-017   2.1946010977148083E-016
 chl          20   5.9622493221938056E-005   1.2557769119388507E-004  0.47478570958821181     
 chl2c          21  0.71973184999562179        3.7838475073783531E-002  0.71973185000000006        5.8366911850854362E-017   3.4529142080099047E-006
 chl          21   9.0382264001153800E-005   1.2557769119388507E-004  0.71973184999562179     
 chl2c          22  0.64616892499753265        3.7613353106285476E-002  0.64616892500000001        5.8366911850854362E-017   4.9384440766981443E-006
 chl          22   8.1144401722424837E-005   1.2557769119388507E-004  0.64616892499753265     
 chl2c          23  0.12896226275209308        3.2286562315070731E-002  0.41564179999999995        4.7524318808195772E-017   4.4429463772966383E-018
 chl          23   1.6194783207547012E-005   1.2557769119388507E-004  0.12896226275209308     
 chl2c          24  0.52762994054625045        3.7348402796863071E-002  0.57597492500000003        5.8366911850854362E-017   1.8345024824995967E-016
 chl          24   6.6258549738564974E-005   1.2557769119388507E-004  0.52762994054625045     
 chl2c          25  0.15486491176970960        4.5426679235459781E-002  0.31406487500000002        2.2194853359340827E-017   3.3904060810633018E-018
 chl          25   1.9447578066984849E-005   1.2557769119388507E-004  0.15486491176970960     
 chl2c          26  0.17768979167833943        4.7955660680174553E-002  0.49427735000000000        2.2194853359340827E-017   3.0786592887736377E-018
 chl          26   2.2313873787688277E-005   1.2557769119388507E-004  0.17768979167833943     
 chl2c          27  0.28187516730820217        4.5333133499525620E-002  0.30964730000000001        2.2194853359340827E-017   3.4876843070898182E-017
 chl          27   3.5397232715454098E-005   1.2557769119388507E-004  0.28187516730820217     
 chl2c          28  0.24035854990732550        3.1209236063453518E-002  0.28776342500000002        4.7524318808195772E-017   3.4670337350040228E-017
 chl          28   3.0183671756072133E-005   1.2557769119388507E-004  0.24035854990732550     
 chl2c          29  0.68676297499661709        3.7743217595736761E-002  0.68676297499999994        5.8366911850854362E-017   4.0687115352687260E-006
 chl          29   8.6242108797518987E-005   1.2557769119388507E-004  0.68676297499661709     
 chl2c          30  0.33997087909622931        2.5380056985171612E-002  0.38930277499999999        1.6306443929548999E-016   2.1874124370324740E-016
 chl          30   4.2692758070059922E-005   1.2557769119388507E-004  0.33997087909622931     
 chl2c          31  0.63559384999561219        3.7576959810037038E-002  0.63559385000000002        5.8366911850854362E-017   2.6868557942915487E-006
 chl          31   7.9816408219481489E-005   1.2557769119388507E-004  0.63559384999561219     
 chl2c          32  0.24722667499961279        2.0893126428578448E-002  0.24722667500000001        5.8366911850854362E-017   4.6061620484620578E-006
 chl          32   3.1046155047992363E-005   1.2557769119388507E-004  0.24722667499961279     
 chl2c          33  0.60343137499724120        3.7458922634011876E-002  0.60343137499999999        5.8366911850854362E-017   3.8518728999956698E-006
 chl          33   7.5777518866105019E-005   1.2557769119388507E-004  0.60343137499724120     
 chl2c          34  0.38241019998529080        2.5350269098008315E-002  0.38241020000000003        1.6306443929548999E-016   8.1058499905016905E-007
 chl          34   4.8022190003144683E-005   1.2557769119388507E-004  0.38241019998529080     
 chl2c          35  0.40076174465934228        2.5740370148566064E-002  0.49574644999999995        1.6306443929548999E-016   1.7053811468538721E-016
 chl          35   5.0326734613153503E-005   1.2557769119388507E-004  0.40076174465934228     
 chl2c          36  0.62988872497469528        3.7770393924465726E-002  0.69587337500000002        5.8366911850854362E-017   1.9385984321294306E-016
 chl          36   7.9099971791382278E-005   1.2557769119388507E-004  0.62988872497469528     
 chl2c          37  0.31286958940407156        2.1353674699533250E-002  0.33194060000000003        5.8366911850854362E-017   1.5892299445459146E-016
 chl          37   3.9289440682142114E-005   1.2557769119388507E-004  0.31286958940407156     
 chl2c          38  0.36605669657335910        2.1543295686358745E-002  0.38455722500000000        5.8366911850854362E-017   2.2205569619034273E-016
 chl          38   4.5968554801742976E-005   1.2557769119388507E-004  0.36605669657335910     
 chl2c          39  0.39128509966213931        2.5670077108751441E-002  0.47091117500000002        1.6306443929548999E-016   1.8867148252518709E-016
 chl          39   4.9136679414140675E-005   1.2557769119388507E-004  0.39128509966213931     
 chl2c          40  0.61936915476852528        3.7687445774703773E-002  0.66875547499999999        5.8366911850854362E-017   2.4476368087737646E-016
 chl          40   7.7778948452539474E-005   1.2557769119388507E-004  0.61936915476852528     
 chl2c          41  0.35512961237048307        2.5582381488167241E-002  0.44304987499999998        1.6306443929548999E-016   1.4590823190270463E-016
 chl          41   4.4596356796064629E-005   1.2557769119388507E-004  0.35512961237048307     
 chl2c          42  0.68997247911322890        3.7949995630725070E-002  0.76234377499999995        5.8366911850854362E-017   2.1210602135624991E-016
 chl          42   8.6645150914360376E-005   1.2557769119388507E-004  0.68997247911322890     
 chl2c          43  0.29539924999834150        2.1185090152268007E-002  0.29539925000000000        5.8366911850854362E-017   1.5354927217739873E-006
 chl          43   3.7095555795196985E-005   1.2557769119388507E-004  0.29539924999834150     
 chl2c          44  0.56827299993172042        3.7536352708156646E-002  0.62417262500000004        5.8366911850854362E-017   1.8517807479230686E-016
 chl          44   7.1362411299248253E-005   1.2557769119388507E-004  0.56827299993172042     
 chl2c          45  0.18634796709683107        4.6544927192009838E-002  0.37662252499999999        2.2194853359340827E-017   4.0932899842293130E-018
 chl          45   2.3401147466694107E-005   1.2557769119388507E-004  0.18634796709683107     
 chl2c          46  0.51876034999784593        3.7083195475449568E-002  0.51876034999999998        5.8366911850854362E-017   3.6461009294756501E-006
 chl          46   6.5144727035661233E-005   1.2557769119388507E-004  0.51876034999784593     
 chl2c          47  0.57415529738299798        3.7519784612651236E-002  0.61962282499999999        5.8366911850854362E-017   2.2834534595126814E-016
 chl          47   7.2101096632095371E-005   1.2557769119388507E-004  0.57415529738299798     
 chl2c          48  0.65267537409215115        3.7823212136301673E-002  0.71424949999999998        5.8366911850854362E-017   2.2094574203199062E-016
 chl          48   8.1961466577597572E-005   1.2557769119388507E-004  0.65267537409215115     
 chl2c          49  0.49567942039107421        3.7152990741888416E-002  0.53276120000000005        5.8366911850854362E-017   2.0783066554408340E-016
 chl          49   6.2246277185034257E-005   1.2557769119388507E-004  0.49567942039107421     
 chl2c          50  0.38132569999886190        2.1533072915600981E-002  0.38132569999999999        5.8366911850854362E-017   3.7287115813577718E-006
 chl          50   4.7886000998749140E-005   1.2557769119388507E-004  0.38132569999886190     
 chl2c          51  0.21668927635477747        2.0700971146093840E-002  0.22275920000000002        5.8366911850854362E-017   2.3207403902170687E-016
 chl          51   2.7211339031106667E-005   1.2557769119388507E-004  0.21668927635477747     
 chl2c          52  0.59129644355235267        3.7581825176985564E-002  0.63698869999999996        5.8366911850854362E-017   2.4056426202977326E-016
 chl          52   7.4253642192459836E-005   1.2557769119388507E-004  0.59129644355235267     
 chl2c          53  0.68415659085166680        3.7925801262726190E-002  0.75269794999999995        5.8366911850854362E-017   2.1926042739399101E-016
 chl          53   8.5914805094231792E-005   1.2557769119388507E-004  0.68415659085166680     
 chl2c          54  0.47937621143047743        3.7082433371327092E-002  0.51861124999999997        5.8366911850854362E-017   1.8491879232904881E-016
 chl          54   6.0198957844711054E-005   1.2557769119388507E-004  0.47937621143047743     
 chl2c          55  0.57808279999801138        3.7357235588660491E-002  0.57808280000000001        5.8366911850854362E-017   4.9039755816711087E-006
 chl          55   7.2594303342646700E-005   1.2557769119388507E-004  0.57808279999801138     
 chl2c          56  0.57348136898366220        3.7507394187257688E-002  0.61626080000000005        5.8366911850854362E-017   2.4109353942336880E-016
 chl          56   7.2016466259676792E-005   1.2557769119388507E-004  0.57348136898366220     
 chl2c          57  0.68163462499216254        3.7727617852646313E-002  0.68163462500000005        5.8366911850854362E-017   1.7300637897088641E-006
 chl          57   8.5598102444325446E-005   1.2557769119388507E-004  0.68163462499216254     
 chl2c          58  0.69416802499676900        3.7765358178394853E-002  0.69416802499999997        5.8366911850854362E-017   4.3523823136226215E-006
 chl          58   8.7172017879713347E-005   1.2557769119388507E-004  0.69416802499676900     
 chl2c          59  0.53705127499243654        3.7173699120809672E-002  0.53705127500000005        5.8366911850854362E-017   1.1128774550003213E-006
 chl          59   6.7441659166282450E-005   1.2557769119388507E-004  0.53705127499243654     
 chl2c          60  0.64452154999613986        3.7607757740906807E-002  0.64452155000000000        5.8366911850854362E-017   3.1405360834442217E-006
 chl          60   8.0937528173219409E-005   1.2557769119388507E-004  0.64452154999613986     
 chl2c          61  0.64595234977909233        3.7805373434125003E-002  0.70794139999999994        5.8366911850854362E-017   2.1528785491835737E-016
 chl          61   8.1117204706523287E-005   1.2557769119388507E-004  0.64595234977909233     
 chl2c          62  0.68071955368996195        3.7956103087269030E-002  0.76481592499999995        5.8366911850854362E-017   1.8066940382156698E-016
 chl          62   8.5483189902917306E-005   1.2557769119388507E-004  0.68071955368996195     
 chl2c          63  0.72597904999591101        3.7855601011927406E-002  0.72597904999999996        5.8366911850854362E-017   3.7615477701741446E-006
 chl          63   9.1166772953616559E-005   1.2557769119388507E-004  0.72597904999591101     
 chl2c          64  0.37933891595107649        2.5708982294816416E-002  0.48435739999999999        1.6306443929548999E-016   1.4264510036320254E-016
 chl          64   4.7636505245127409E-005   1.2557769119388507E-004  0.37933891595107649     
 chl2c          65  0.76379974998000388        3.7953597170552002E-002  0.76379975000000000        5.8366911850854362E-017   8.5143294319376088E-007
 chl          65   9.5916209136955551E-005   1.2557769119388507E-004  0.76379974998000388     
 chl2c          66  0.10111143550852476        3.1840477731474713E-002  0.35213202499999996        4.7524318808195772E-017   3.3704070943341994E-018
 chl          66   1.2697340624459949E-005   1.2557769119388507E-004  0.10111143550852476     
 chl2c          67  0.68424288527676003        3.7937587124568600E-002  0.75736760000000003        5.8366911850854362E-017   2.0681857799379972E-016
 chl          67   8.5925641748897894E-005   1.2557769119388507E-004  0.68424288527676003     
 chl2c          68  0.72590779999640387        3.7855407263856986E-002  0.72590779999999999        5.8366911850854362E-017   4.2762115032989541E-006
 chl          68   9.1157825543180889E-005   1.2557769119388507E-004  0.72590779999640387     
 chl2c          69  0.45524217499801412        2.1732330561541505E-002  0.45524217500000003        5.8366911850854362E-017   3.0455266364735303E-006
 chl          69   5.7168261270333201E-005   1.2557769119388507E-004  0.45524217499801412     
 chl2c          70  0.38253093407750299        3.2658010878182209E-002  0.48694062500000002        4.7524318808195772E-017   4.2392366830921345E-017
 chl          70   4.8037351511693079E-005   1.2557769119388507E-004  0.38253093407750299     
 chl2c          71  0.14053967779429324        4.3481058864416305E-002  0.23986107500000001        2.2194853359340827E-017   3.7665019207890064E-018
 chl          71   1.7648648258539863E-005   1.2557769119388507E-004  0.14053967779429324     
 chl2c          72  0.58365998880013936        3.7549776402781669E-002  0.62790522500000001        5.8366911850854362E-017   2.4172647648381170E-016
 chl          72   7.3294673835770324E-005   1.2557769119388507E-004  0.58365998880013936     
 chl2c          73  0.11834253452329045        3.1852614277819484E-002  0.35362212500000001        4.7524318808195772E-017   4.2265104317226520E-018
 chl          73   1.4861182255467451E-005   1.2557769119388507E-004  0.11834253452329045     
 chl2c          74  0.64719589999667693        3.7616827685877569E-002  0.64719590000000005        5.8366911850854362E-017   3.6785066045559241E-006
 chl          74   8.1273366871731216E-005   1.2557769119388507E-004  0.64719589999667693     
 chl2c          75  0.64715495783757659        3.7826830779512356E-002  0.71554212500000003        5.8366911850854362E-017   1.9760848792078600E-016
 chl          75   8.1268225449918901E-005   1.2557769119388507E-004  0.64715495783757659     
 chl2c          76  0.55513977499797174        3.7257729557919804E-002  0.55513977500000000        5.8366911850854362E-017   4.4344415638523900E-006
 chl          76   6.9713171234138131E-005   1.2557769119388507E-004  0.55513977499797174     
 chl2c          77  0.52973029999653054        3.7138172437479272E-002  0.52973029999999999        5.8366911850854362E-017   2.3603773532671735E-006
 chl          77   6.6522308029008412E-005   1.2557769119388507E-004  0.52973029999653054     
 chl2c          78  0.45117492498751605        4.7515248899399322E-002  0.45117492500000000        2.2194853359340827E-017   1.8095071386514268E-007
 chl          78   5.6657505404506552E-005   1.2557769119388507E-004  0.45117492498751605     
 prod   1.5387289233282185E-008   2.0826475825473601E-010   10.000000000000000     
 dcdom   1.2350520080673116E-012  -1.6537062412422528E-010
 chl2c           1  0.60826437499935071        3.7477407714772232E-002  0.60826437499999997        8.8286374004161056E-018   2.5154759402274117E-006
 chl           1   5.0214683414264562E-005   8.2554043074309862E-005  0.60826437499935071     
 chl2c           2  0.48302389996073475        3.2640259920490348E-002  0.48302390000000001        7.1206198700655940E-018   2.1155189814129728E-008
 chl           2   3.9875575843279636E-005   8.2554043074309862E-005  0.48302389996073475     
 chl2c           3  0.74398067466337336        3.7922212503796585E-002  0.75128689999999998        8.8286374004161056E-018   3.3770546834203200E-016
 chl           3   6.1418612662614232E-005   8.2554043074309862E-005  0.74398067466337336     
 chl2c           4  0.77318742499962689        3.7976509103863923E-002  0.77318742499999993        8.8286374004161056E-018   7.0750992894604409E-006
 chl           4   6.3829747987933922E-005   8.2554043074309862E-005  0.77318742499962689     
 chl2c           5  0.48489679999873508        2.5710500362372445E-002  0.48489679999999996        2.5137631066675574E-017   2.3362944278110486E-006
 chl           5   4.0030191313690592E-005   8.2554043074309862E-005  0.48489679999873508     
 chl2c           6  0.28364377104783167        3.1261039902252048E-002  0.29222855000000003        7.1206198700655940E-018   3.4375940023603644E-017
 chl           6   2.3415940092842380E-005   8.2554043074309862E-005  0.28364377104783167     
 chl2c           7  0.22770739999808884        4.3064391842467263E-002  0.22770740000000000        3.3007778812852670E-018   4.4775701114117550E-008
 chl           7   1.8798166507781330E-005   8.2554043074309862E-005  0.22770739999808884     
 chl2c           8  0.49578364998726937        4.7969800906495587E-002  0.49578364999999996        3.3007778812852670E-018   3.1865706636351668E-008
 chl           8   4.0928944796587603E-005   8.2554043074309862E-005  0.49578364998726937     
 chl2c           9  0.28700202499979738        2.4803669054600401E-002  0.28700202499999999        2.5137631066675574E-017   5.1108170718503373E-006
 chl           9   2.3693177534247430E-005   8.2554043074309862E-005  0.28700202499979738     
 chl2c          10  0.39094662499951588        2.5387016219684602E-002  0.39094662499999999        2.5137631066675574E-017   3.9676512295907726E-006
 chl          10   3.2274224519966098E-005   8.2554043074309862E-005  0.39094662499951588     
 chl2c          11  0.49329409944874725        2.1820572217820047E-002  0.49737575000000001        8.8286374004161056E-018   2.6534957253857021E-016
 chl          11   4.0723422334194773E-005   8.2554043074309862E-005  0.49329409944874725     
 chl2c          12  0.25221923435993643        4.5290941298723353E-002  0.30768942500000002        3.3007778812852670E-018   2.3089653705061440E-018
 chl          12   2.0821717537519645E-005   8.2554043074309862E-005  0.25221923435993643     
 chl2c          13  0.74818681544079435        3.7935816987997487E-002  0.75666275000000005        8.8286374004161056E-018   2.9484142055244493E-016
 chl          13   6.1765846589530062E-005   8.2554043074309862E-005  0.74818681544079435     
 chl2c          14  0.38841582123909757        4.6856526101924839E-002  0.39804095000000000        3.3007778812852670E-018   2.6509676156725852E-017
 chl          14   3.2065296437315903E-005   8.2554043074309862E-005  0.38841582123909757     
 chl2c          15  0.25607262499994105        2.0954299823745293E-002  0.25607262500000000        8.8286374004161056E-018   4.9079449306787387E-006
 chl          15   2.1139830514396728E-005   8.2554043074309862E-005  0.25607262499994105     
 chl2c          16  0.70790916988710129        3.7823443882273475E-002  0.71433214999999994        8.8286374004161056E-018   3.4754003636539045E-016
 chl          16   5.8440764103558695E-005   8.2554043074309862E-005  0.70790916988710129     
 chl2c          17  0.62087167496108908        3.7542254757581245E-002  0.62580860000000005        8.8286374004161056E-018   3.4741656807286178E-016
 chl          17   5.1255466998356662E-005   8.2554043074309862E-005  0.62087167496108908     
 chl2c          18  0.46888958066842701        2.5694475239060960E-002  0.47925950000000000        2.5137631066675574E-017   2.7237063726755943E-016
 chl          18   3.8708730639596414E-005   8.2554043074309862E-005  0.46888958066842701     
 chl2c          19  0.63367129999967065        3.7570220750293731E-002  0.63367130000000005        8.8286374004161056E-018   5.3805779226573483E-006
 chl          19   5.2312127795126738E-005   8.2554043074309862E-005  0.63367129999967065     
 chl2c          20  0.50322812220583490        3.7020645196759419E-002  0.50678202500000002        8.8286374004161056E-018   3.1677014646772378E-016
 chl          20   4.1543516076784563E-005   8.2554043074309862E-005  0.50322812220583490     
 chl2c          21  0.71973184999956663        3.7838475073783531E-002  0.71973185000000006        8.8286374004161056E-018   5.2751874290848184E-006
 chl          21   5.9416774146816945E-005   8.2554043074309862E-005  0.71973184999956663     
 chl2c          22  0.64616892499973344        3.7613353106285476E-002  0.64616892500000001        8.8286374004161056E-018   6.9136154028442402E-006
 chl          22   5.3343857267708495E-005   8.2554043074309862E-005  0.64616892499973344     
 chl2c          23  0.28435704009823731        3.2286562315070731E-002  0.41564179999999995        7.1206198700655940E-018   3.2052115114189903E-018
 chl          23   2.3474823336753141E-005   8.2554043074309862E-005  0.28435704009823731     
 chl2c          24  0.57061417315149443        3.7348402796863071E-002  0.57597492500000003        8.8286374004161056E-018   2.7063509406668874E-016
 chl          24   4.7106507029160179E-005   8.2554043074309862E-005  0.57061417315149443     
 chl2c          25  0.25912261512455226        4.5426679235459781E-002  0.31406487500000002        3.3007778812852670E-018   2.4445812232082090E-018
 chl          25   2.1391619530520102E-005   8.2554043074309862E-005  0.25912261512455226     
 chl2c          26  0.36143382872127050        4.7955660680174553E-002  0.49427735000000000        3.3007778812852670E-018   2.2194503480176885E-018
 chl          26   2.9837823864768496E-005   8.2554043074309862E-005  0.36143382872127050     
 chl2c          27  0.30374259156855843        4.5333133499525620E-002  0.30964730000000001        3.3007778812852670E-018   2.6288199312890419E-017
 chl          27   2.5075178987853279E-005   8.2554043074309862E-005  0.30374259156855843     
 chl2c          28  0.27690644399359027        3.1209236063453518E-002  0.28776342500000002        7.1206198700655940E-018   2.6130479818234059E-017
 chl          28   2.2859746505000823E-005   8.2554043074309862E-005  0.27690644399359027     
 chl2c          29  0.68676297499962313        3.7743217595736761E-002  0.68676297499999994        8.8286374004161056E-018   5.5247025308057201E-006
 chl          29   5.6695060219960073E-005   8.2554043074309862E-005  0.68676297499962313     
 chl2c          30  0.38279033880077223        2.5380056985171612E-002  0.38930277499999999        2.5137631066675574E-017   2.8760692465906671E-016
 chl          30   3.1600890117788615E-005   8.2554043074309862E-005  0.38279033880077223     
 chl2c          31  0.63559384999943036        3.7576959810037038E-002  0.63559385000000002        8.8286374004161056E-018   3.1304122187096685E-006
 chl          31   5.2470842070619414E-005   8.2554043074309862E-005  0.63559384999943036     
 chl2c          32  0.24722667499995438        2.0893126428578448E-002  0.24722667500000001        8.8286374004161056E-018   5.9165417099905055E-006
 chl          32   2.0409561577064640E-005   8.2554043074309862E-005  0.24722667499995438     
 chl2c          33  0.60343137499971422        3.7458922634011876E-002  0.60343137499999999        8.8286374004161056E-018   5.6234691478874894E-006
 chl          33   4.9815699724116434E-005   8.2554043074309862E-005  0.60343137499971422     
 chl2c          34  0.38241019999658077        2.5350269098008315E-002  0.38241020000000003        2.5137631066675574E-017   5.3755842527607208E-007
 chl          34   3.1569508122573181E-005   8.2554043074309862E-005  0.38241019999658077     
 chl2c          35  0.48294328028908062        2.5740370148566064E-002  0.49574644999999995        2.5137631066675574E-017   2.3503502762220188E-016
 chl          35   3.9868920363433264E-005   8.2554043074309862E-005  0.48294328028908062     
 chl2c          36  0.68843184137851066        3.7770393924465726E-002  0.69587337500000002        8.8286374004161056E-018   2.8417927744617681E-016
 chl          36   5.6832831886888023E-005   8.2554043074309862E-005  0.68843184137851066     
 chl2c          37  0.32976014512704971        2.1353674699533250E-002  0.33194060000000003        8.8286374004161056E-018   2.2160273802675518E-016
 chl          37   2.7223033225009132E-005   8.2554043074309862E-005  0.32976014512704971     
 chl2c          38  0.38232725455954597        2.1543295686358745E-002  0.38455722500000000        8.8286374004161056E-018   2.9104544841694702E-016
 chl          38   3.1562660641391392E-005   8.2554043074309862E-005  0.38232725455954597     
 chl2c          39  0.46024492267429706        2.5670077108751441E-002  0.47091117500000002        2.5137631066675574E-017   2.5539388925195292E-016
 chl          39   3.7995079171186328E-005   8.2554043074309862E-005  0.46024492267429706     
 chl2c          40  0.66313037524443430        3.7687445774703773E-002  0.66875547499999999        8.8286374004161056E-018   3.4801641440018289E-016
 chl          40   5.4744093561812292E-005   8.2554043074309862E-005  0.66313037524443430     
 chl2c          41  0.43139802519544584        2.5582381488167241E-002  0.44304987499999998        2.5137631066675574E-017   2.0617226666081725E-016
 chl          41   3.5613651154157049E-005   8.2554043074309862E-005  0.43139802519544584     
 chl2c          42  0.75409141029968096        3.7949995630725070E-002  0.76234377499999995        8.8286374004161056E-018   3.0751062376605256E-016
 chl          42   6.2253294767846933E-005   8.2554043074309862E-005  0.75409141029968096     
 chl2c          43  0.29539924999986134        2.1185090152268007E-002  0.29539925000000000        8.8286374004161056E-018   2.7774597782832598E-006
 chl          43   2.4386402408607379E-005   8.2554043074309862E-005  0.29539924999986134     
 chl2c          44  0.61793363309214999        3.7536352708156646E-002  0.62417262500000004        8.8286374004161056E-018   2.7289514765561336E-016
 chl          44   5.1012919763354135E-005   8.2554043074309862E-005  0.61793363309214999     
 chl2c          45  0.31112227722506358        4.6544927192009838E-002  0.37662252499999999        3.3007778812852670E-018   2.9524378309725620E-018
 chl          45   2.5684401875415273E-005   8.2554043074309862E-005  0.31112227722506358     
 chl2c          46  0.51876034999974407        3.7083195475449568E-002  0.51876034999999998        8.8286374004161056E-018   4.6419036055551105E-006
 chl          46   4.2825764279122930E-005   8.2554043074309862E-005  0.51876034999974407     
 chl2c          47  0.61449614853217094        3.7519784612651236E-002  0.61962282499999999        8.8286374004161056E-018   3.2784936461040794E-016
 chl          47   5.0729141514922348E-005   8.2554043074309862E-005  0.61449614853217094     
 chl2c          48  0.70725108841772644        3.7823212136301673E-002  0.71424949999999998        8.8286374004161056E-018   3.1863081476586989E-016
 chl          48   5.8386436817589519E-005   8.2554043074309862E-005  0.70725108841772644     
 chl2c          49  0.52864567813119534        3.7152990741888416E-002  0.53276120000000005        8.8286374004161056E-018   3.0208978871090197E-016
 chl          49   4.3641838083490449E-005   8.2554043074309862E-005  0.52864567813119534     
 chl2c          50  0.38132569999987154        2.1533072915600981E-002  0.38132569999999999        8.8286374004161056E-018   4.9976513996839130E-006
 chl          50   3.1479978263130755E-005   8.2554043074309862E-005  0.38132569999987154     
 chl2c          51  0.22203458437842130        2.0700971146093840E-002  0.22275920000000002        8.8286374004161056E-018   3.0130911347707012E-016
 chl          51   1.8329852642762679E-005   8.2554043074309862E-005  0.22203458437842130     
 chl2c          52  0.63180764000216383        3.7581825176985564E-002  0.63698869999999996        8.8286374004161056E-018   3.4289540432336190E-016
 chl          52   5.2158275127416689E-005   8.2554043074309862E-005  0.63180764000216383     
 chl2c          53  0.74487862895601775        3.7925801262726190E-002  0.75269794999999995        8.8286374004161056E-018   3.1651980354604692E-016
 chl          53   6.1492742419967964E-005   8.2554043074309862E-005  0.74487862895601775     
 chl2c          54  0.51429149878996583        3.7082433371327092E-002  0.51861124999999997        8.8286374004161056E-018   2.7255630235581601E-016
 chl          54   4.2456842543858217E-005   8.2554043074309862E-005  0.51429149878996583     
 chl2c          55  0.57808279999978529        3.7357235588660491E-002  0.57808280000000001        8.8286374004161056E-018   6.8712126407760267E-006
 chl          55   4.7723072371699925E-005   8.2554043074309862E-005  0.57808279999978529     
 chl2c          56  0.61141921926401377        3.7507394187257688E-002  0.61626080000000005        8.8286374004161056E-018   3.4354223431684833E-016
 chl          56   5.0475128563582300E-005   8.2554043074309862E-005  0.61141921926401377     
 chl2c          57  0.68163462499880501        3.7727617852646313E-002  0.68163462500000005        8.8286374004161056E-018   1.7162472523321541E-006
 chl          57   5.6271694193092398E-005   8.2554043074309862E-005  0.68163462499880501     
 chl2c          58  0.69416802499966490        3.7765358178394853E-002  0.69416802499999997        8.8286374004161056E-018   6.3488882419442278E-006
 chl          58   5.7306377036630944E-005   8.2554043074309862E-005  0.69416802499966490     
 chl2c          59  0.53705127499942928        3.7173699120809672E-002  0.53705127500000005        8.8286374004161056E-018   2.2307428762377861E-006
 chl          59   4.4335754089415919E-005   8.2554043074309862E-005  0.53705127499942928     
 chl2c          60  0.64452154999961964        3.7607757740906807E-002  0.64452155000000000        8.8286374004161056E-018   4.8214881316326470E-006
 chl          60   5.3207859800989555E-005   8.2554043074309862E-005  0.64452154999961964     
 chl2c          61  0.70091022606242770        3.7805373434125003E-002  0.70794139999999994        8.8286374004161056E-018   3.1152689724861130E-016
 chl          61   5.7862972993581920E-005   8.2554043074309862E-005  0.70091022606242770     
 chl2c          62  0.75526535966902852        3.7956103087269030E-002  0.76481592499999995        8.8286374004161056E-018   2.6698760120629692E-016
 chl          62   6.2350209034651118E-005   8.2554043074309862E-005  0.75526535966902852     
 chl2c          63  0.72597904999957474        3.7855601011927406E-002  0.72597904999999996        8.8286374004161056E-018   5.4704985333446866E-006
 chl          63   5.9932505764711444E-005   8.2554043074309862E-005  0.72597904999957474     
 chl2c          64  0.47020331942743460        2.5708982294816416E-002  0.48435739999999999        2.5137631066675574E-017   2.0223872508798907E-016
 chl          64   3.8817185085695913E-005   8.2554043074309862E-005  0.47020331942743460     
 chl2c          65  0.76379974999855305        3.7953597170552002E-002  0.76379975000000000        8.8286374004161056E-018   1.7796873424247533E-006
 chl          65   6.3054757461527647E-005   8.2554043074309862E-005  0.76379974999855305     
 chl2c          66  0.23229290969294877        3.1840477731474713E-002  0.35213202499999996        7.1206198700655940E-018   2.4301366211007383E-018
 chl          66   1.9176718872648465E-005   8.2554043074309862E-005  0.23229290969294877     
 chl2c          67  0.74904238532958911        3.7937587124568600E-002  0.75736760000000003        8.8286374004161056E-018   3.0080244319821604E-016
 chl          67   6.1836477342982709E-005   8.2554043074309862E-005  0.74904238532958911     
 chl2c          68  0.72590779999963073        3.7855407263856986E-002  0.72590779999999999        8.8286374004161056E-018   6.3004921232243938E-006
 chl          68   5.9926623789147027E-005   8.2554043074309862E-005  0.72590779999963073     
 chl2c          69  0.45524217499975844        2.1732330561541505E-002  0.45524217500000003        8.8286374004161056E-018   3.7872236072345435E-006
 chl          69   3.7582082124172568E-005   8.2554043074309862E-005  0.45524217499975844     
 chl2c          70  0.46194887469370899        3.2658010878182209E-002  0.48694062500000002        7.1206198700655940E-018   3.2045057512199463E-017
 chl          70   3.8135747299593422E-005   8.2554043074309862E-005  0.46194887469370899     
 chl2c          71  0.20935077290903520        4.3481058864416305E-002  0.23986107500000001        3.3007778812852670E-018   2.7162775322941267E-018
 chl          71   1.7282752724372553E-005   8.2554043074309862E-005  0.20935077290903520     
 chl2c          72  0.62289088770718348        3.7549776402781669E-002  0.62790522500000001        8.8286374004161056E-018   3.4431521604070841E-016
 chl          72   5.1422161174373933E-005   8.2554043074309862E-005  0.62289088770718348     
 chl2c          73  0.25027051419322777        3.1852614277819484E-002  0.35362212500000001        7.1206198700655940E-018   3.0487349670859471E-018
 chl          73   2.0660842808937402E-005   8.2554043074309862E-005  0.25027051419322777     
 chl2c          74  0.64719589999966698        3.7616827685877569E-002  0.64719590000000005        8.8286374004161056E-018   5.5501070358030023E-006
 chl          74   5.3428638206089244E-005   8.2554043074309862E-005  0.64719589999966698     
 chl2c          75  0.70780653684536887        3.7826830779512356E-002  0.71554212500000003        8.8286374004161056E-018   2.8901482507628719E-016
 chl          75   5.8432291331010672E-005   8.2554043074309862E-005  0.70780653684536887     
 chl2c          76  0.55513977499978251        3.7257729557919804E-002  0.55513977500000000        8.8286374004161056E-018   6.2576709639167658E-006
 chl          76   4.5829032897594728E-005   8.2554043074309862E-005  0.55513977499978251     
 chl2c          77  0.52973029999967958        3.7138172437479272E-002  0.52973029999999999        8.8286374004161056E-018   3.8656020755745932E-006
 chl          77   4.3731378003940634E-005   8.2554043074309862E-005  0.52973029999967958     
 chl2c          78  0.45117492499393874        4.7515248899399322E-002  0.45117492500000000        3.3007778812852670E-018   5.5426413287117804E-008
 chl          78   3.7246314191998138E-005   8.2554043074309862E-005  0.45117492499393874     
 prod   1.1075557838388257E-008   3.1015909084511987E-011   10.000000000000000     
 dcdom   1.2354238010460759E-012  -1.3776009470627259E-010
 chl2c           1  0.60826437499996810        3.7477407714772232E-002  0.60826437499999997        1.1407384745250533E-018   6.6172333982307802E-006
 chl           1   1.0971880355262265E-005   1.8038012427183230E-005  0.60826437499996810     
 chl2c           2  0.48302389996427614        3.2640259920490348E-002  0.48302390000000001        9.0523897098290161E-019   2.9560469956205359E-009
 chl           2   8.7127911101821231E-006   1.8038012427183230E-005  0.48302389996427614     
 chl2c           3  0.75073458744746679        3.7922212503796585E-002  0.75128689999999998        1.1407384745250533E-018   5.8245639967457117E-016
 chl           3   1.3541759817893682E-005   1.8038012427183230E-005  0.75073458744746679     
 chl2c           4  0.77318742499997040        3.7976509103863923E-002  0.77318742499999993        1.1407384745250533E-018   1.1574268690279374E-005
 chl           4   1.3946764380691269E-005   1.8038012427183230E-005  0.77318742499997040     
 chl2c           5  0.48489679999972152        2.5710500362372445E-002  0.48489679999999996        3.3476270383471038E-018   1.4133451682364434E-006
 chl           5   8.7465745042963583E-006   1.8038012427183230E-005  0.48489679999972152     
 chl2c           6  0.28997622904859283        3.1261039902252048E-002  0.29222855000000003        9.0523897098290161E-019   1.7028955512070651E-017
 chl           6   5.2305948231662479E-006   1.8038012427183230E-005  0.28997622904859283     
 chl2c           7  0.22770739999939424        4.3064391842467263E-002  0.22770740000000000        4.1432978944670766E-019   1.7731508128840049E-008
 chl           7   4.1073889109506561E-006   1.8038012427183230E-005  0.22770739999939424     
 chl2c           8  0.49578364999691610        4.7969800906495587E-002  0.49578364999999996        4.1432978944670766E-019   1.6512385197180482E-008
 chl           8   8.9429516398386340E-006   1.8038012427183230E-005  0.49578364999691610     
 chl2c           9  0.28700202499998201        2.4803669054600401E-002  0.28700202499999999        3.3476270383471038E-018   7.6668602383366365E-006
 chl           9   5.1769460935764277E-006   1.8038012427183230E-005  0.28700202499998201     
 chl2c          10  0.39094662499993071        2.5387016219684602E-002  0.39094662499999999        3.3476270383471038E-018   3.6940676633483148E-006
 chl          10   7.0519000801140924E-006   1.8038012427183230E-005  0.39094662499993071     
 chl2c          11  0.49702242839615951        2.1820572217820047E-002  0.49737575000000001        1.1407384745250533E-018   3.9906762345997374E-016
 chl          11   8.9652967399987125E-006   1.8038012427183230E-005  0.49702242839615951     
 chl2c          12  0.28859466708389964        4.5290941298723353E-002  0.30768942500000002        4.1432978944670766E-019   9.6339165174756164E-019
 chl          12   5.2056741912781886E-006   1.8038012427183230E-005  0.28859466708389964     
 chl2c          13  0.75605299293215000        3.7935816987997487E-002  0.75666275000000005        1.1407384745250533E-018   5.3512327673349641E-016
 chl          13   1.3637693282119196E-005   1.8038012427183230E-005  0.75605299293215000     
 chl2c          14  0.39554189508031007        4.6856526101924839E-002  0.39804095000000000        4.1432978944670766E-019   1.3051505397173760E-017
 chl          14   7.1347896189302388E-006   1.8038012427183230E-005  0.39554189508031007     
 chl2c          15  0.25607262499999267        2.0954299823745293E-002  0.25607262500000000        1.1407384745250533E-018   5.1140195752839501E-006
 chl          15   4.6190411920112991E-006   1.8038012427183230E-005  0.25607262499999267     
 chl2c          16  0.71384140943868613        3.7823443882273475E-002  0.71433214999999994        1.1407384745250533E-018   5.9266062261689423E-016
 chl          16   1.2876280214493012E-005   1.8038012427183230E-005  0.71384140943868613     
 chl2c          17  0.62543184035643129        3.7542254757581245E-002  0.62580860000000005        1.1407384745250533E-018   5.9253393886248926E-016
 chl          17   1.1281547308705387E-005   1.8038012427183230E-005  0.62543184035643129     
 chl2c          18  0.47831117069628309        2.5694475239060960E-002  0.47925950000000000        3.3476270383471038E-018   4.0460305224918927E-016
 chl          18   8.6277828410801146E-006   1.8038012427183230E-005  0.47831117069628309     
 chl2c          19  0.63367129999997684        3.7570220750293731E-002  0.63367130000000005        1.1407384745250533E-018   9.8402847651820453E-006
 chl          19   1.1430170784148936E-005   1.8038012427183230E-005  0.63367129999997684     
 chl2c          20  0.50652054857845219        3.7020645196759419E-002  0.50678202500000002        1.1407384745250533E-018   5.5994043741554564E-016
 chl          20   9.1366239498817878E-006   1.8038012427183230E-005  0.50652054857845219     
 chl2c          21  0.71973184999997053        3.7838475073783531E-002  0.71973185000000006        1.1407384745250533E-018   9.9945519842940215E-006
 chl          21   1.2982532054539044E-005   1.8038012427183230E-005  0.71973184999997053     
 chl2c          22  0.64616892499997902        3.7613353106285476E-002  0.64616892500000001        1.1407384745250533E-018   1.1375119365328328E-005
 chl          22   1.1655603099209251E-005   1.8038012427183230E-005  0.64616892499997902     
 chl2c          23  0.36442577105805851        3.2286562315070731E-002  0.41564179999999995        9.0523897098290161E-019   1.3386148626531715E-018
 chl          23   6.5735165871310902E-006   1.8038012427183230E-005  0.36442577105805851     
 chl2c          24  0.57560132171528888        3.7348402796863071E-002  0.57597492500000003        1.1407384745250533E-018   5.0614012429665177E-016
 chl          24   1.0382703794203473E-005   1.8038012427183230E-005  0.57560132171528888     
 chl2c          25  0.29523485885298528        4.5426679235459781E-002  0.31406487500000002        4.1432978944670766E-019   1.0201228436748593E-018
 chl          25   5.3254500529278354E-006   1.8038012427183230E-005  0.29523485885298528     
 chl2c          26  0.44506024547639594        4.7955660680174553E-002  0.49427735000000000        4.1432978944670766E-019   9.2595443486106240E-019
 chl          26   8.0280022387484492E-006   1.8038012427183230E-005  0.44506024547639594     
 chl2c          27  0.30811986967906158        4.5333133499525620E-002  0.30964730000000001        4.1432978944670766E-019   1.2940222954502793E-017
 chl          27   5.5578700383329904E-006   1.8038012427183230E-005  0.30811986967906158     
 chl2c          28  0.28487837323072535        3.1209236063453518E-002  0.28776342500000002        9.0523897098290161E-019   1.2860999182863842E-017
 chl          28   5.1386396365715664E-006   1.8038012427183230E-005  0.28487837323072535     
 chl2c          29  0.68676297499996619        3.7743217595736761E-002  0.68676297499999994        1.1407384745250533E-018   7.9954856141095583E-006
 chl          29   1.2387839077578716E-005   1.8038012427183230E-005  0.68676297499996619     
 chl2c          30  0.38869416286237068        2.5380056985171612E-002  0.38930277499999999        3.3476270383471038E-018   4.1616157661195961E-016
 chl          30   7.0112701400850250E-006   1.8038012427183230E-005  0.38869416286237068     
 chl2c          31  0.63559384999991531        3.7576959810037038E-002  0.63559385000000002        1.1407384745250533E-018   2.7206661584560268E-006
 chl          31   1.1464849764939706E-005   1.8038012427183230E-005  0.63559384999991531     
 chl2c          32  0.24722667499999568        2.0893126428578448E-002  0.24722667500000001        1.1407384745250533E-018   8.0230020606563222E-006
 chl          32   4.4594778359811119E-006   1.8038012427183230E-005  0.24722667499999568     
 chl2c          33  0.60343137499997934        3.7458922634011876E-002  0.60343137499999999        1.1407384745250533E-018   1.0078706096403204E-005
 chl          33   1.0884702641201891E-005   1.8038012427183230E-005  0.60343137499997934     
 chl2c          34  0.38174050179973329        2.5350269098008315E-002  0.38241020000000003        3.3476270383471038E-018   3.6485949035944977E-016
 chl          34   6.8858399154227510E-006   1.8038012427183230E-005  0.38174050179973329     
 chl2c          35  0.49464752445017351        2.5740370148566064E-002  0.49574644999999995        3.3476270383471038E-018   3.7350313667076345E-016
 chl          35   8.9224581931076502E-006   1.8038012427183230E-005  0.49464752445017351     
 chl2c          36  0.69534524396784825        3.7770393924465726E-002  0.69587337500000002        1.1407384745250533E-018   5.2257077246947186E-016
 chl          36   1.2542646151874801E-005   1.8038012427183230E-005  0.69534524396784825     
 chl2c          37  0.33176671217633524        2.1353674699533250E-002  0.33194060000000003        1.1407384745250533E-018   3.6122691781731414E-016
 chl          37   5.9844120771624570E-006   1.8038012427183230E-005  0.33176671217633524     
 chl2c          38  0.38435587105647501        2.1543295686358745E-002  0.38455722500000000        1.1407384745250533E-018   4.1868793731250826E-016
 chl          38   6.9330159785775313E-006   1.8038012427183230E-005  0.38435587105647501     
 chl2c          39  0.46996372388417440        2.5670077108751441E-002  0.47091117500000002        3.3476270383471038E-018   3.9097914513434992E-016
 chl          39   8.4772114917480463E-006   1.8038012427183230E-005  0.46996372388417440     
 chl2c          40  0.66832569347015158        3.7687445774703773E-002  0.66875547499999999        1.1407384745250533E-018   5.9314907119610646E-016
 chl          40   1.2055267164220445E-005   1.8038012427183230E-005  0.66832569347015158     
 chl2c          41  0.44210319240405782        2.5582381488167241E-002  0.44304987499999998        3.3476270383471038E-018   3.4632109627913670E-016
 chl          41   7.9746628786817737E-006   1.8038012427183230E-005  0.44210319240405782     
 chl2c          42  0.76174114426198325        3.7949995630725070E-002  0.76234377499999995        1.1407384745250533E-018   5.4962070713487180E-016
 chl          42   1.3740296226494428E-005   1.8038012427183230E-005  0.76174114426198325     
 chl2c          43  0.29539924999999173        2.1185090152268007E-002  0.29539925000000000        1.1407384745250533E-018   6.0147949745861588E-006
 chl          43   5.3284153424804570E-006   1.8038012427183230E-005  0.29539924999999173     
 chl2c          44  0.62373629829409072        3.7536352708156646E-002  0.62417262500000004        1.1407384745250533E-018   5.0892060469761303E-016
 chl          44   1.1250963099914075E-005   1.8038012427183230E-005  0.62373629829409072     
 chl2c          45  0.35420371702080561        4.6544927192009838E-002  0.37662252499999999        4.1432978944670766E-019   1.2327160527212291E-018
 chl          45   6.3891310493757834E-006   1.8038012427183230E-005  0.35420371702080561     
 chl2c          46  0.51876034999997211        3.7083195475449568E-002  0.51876034999999998        1.1407384745250533E-018   5.5029715463676093E-006
 chl          46   9.3574056400294197E-006   1.8038012427183230E-005  0.51876034999997211     
 chl2c          47  0.61924021939676410        3.7519784612651236E-002  0.61962282499999999        1.1407384745250533E-018   5.7199381298538923E-016
 chl          47   1.1169862772890501E-005   1.8038012427183230E-005  0.61924021939676410     
 chl2c          48  0.71373211343784293        3.7823212136301673E-002  0.71424949999999998        1.1407384745250533E-018   5.6198682187385365E-016
 chl          48   1.2874308731871562E-005   1.8038012427183230E-005  0.71373211343784293     
 chl2c          49  0.53246348456020010        3.7152990741888416E-002  0.53276120000000005        1.1407384745250533E-018   5.4347197532146996E-016
 chl          49   9.6045829515181750E-006   1.8038012427183230E-005  0.53246348456020010     
 chl2c          50  0.38132569999998889        2.1533072915600981E-002  0.38132569999999999        1.1407384745250533E-018   7.4590594154372826E-006
 chl          50   6.8783577154041441E-006   1.8038012427183230E-005  0.38132569999998889     
 chl2c          51  0.22269279060692021        2.0700971146093840E-002  0.22275920000000002        1.1407384745250533E-018   4.2605767172821373E-016
 chl          51   4.0169353244117396E-006   1.8038012427183230E-005  0.22269279060692021     
 chl2c          52  0.63659526791940024        3.7581825176985564E-002  0.63698869999999996        1.1407384745250533E-018   5.8787021726890575E-016
 chl          52   1.1482913353816179E-005   1.8038012427183230E-005  0.63659526791940024     
 chl2c          53  0.75212100176731733        3.7925801262726190E-002  0.75269794999999995        1.1407384745250533E-018   5.5966441685407527E-016
 chl          53   1.3566767976624370E-005   1.8038012427183230E-005  0.75212100176731733     
 chl2c          54  0.51830974647094386        3.7082433371327092E-002  0.51861124999999997        1.1407384745250533E-018   5.0850473711199671E-016
 chl          54   9.3492776479730752E-006   1.8038012427183230E-005  0.51830974647094386     
 chl2c          55  0.57808279999998324        3.7357235588660491E-002  0.57808280000000001        1.1407384745250533E-018   1.1309552917120583E-005
 chl          55   1.0427464730340575E-005   1.8038012427183230E-005  0.57808279999998324     
 chl2c          56  0.61589296793123982        3.7507394187257688E-002  0.61626080000000005        1.1407384745250533E-018   5.8854041757051610E-016
 chl          56   1.1109485009358467E-005   1.8038012427183230E-005  0.61589296793123982     
 chl2c          57  0.68163462499955130        3.7727617852646313E-002  0.68163462500000005        1.1407384745250533E-018   5.9046839675105239E-007
 chl          57   1.2295333836540287E-005   1.8038012427183230E-005  0.68163462499955130     
 chl2c          58  0.69416802499997510        3.7765358178394853E-002  0.69416802499999997        1.1407384745250533E-018   1.1046826087168901E-005
 chl          58   1.2521411461502789E-005   1.8038012427183230E-005  0.69416802499997510     
 chl2c          59  0.53705127499997340        3.7173699120809672E-002  0.53705127500000005        1.1407384745250533E-018   6.1909885841570676E-006
 chl          59   9.6873375724841182E-006   1.8038012427183230E-005  0.53705127499997340     
 chl2c          60  0.64452154999997469        3.7607757740906807E-002  0.64452155000000000        1.1407384745250533E-018   9.3694729477643490E-006
 chl          60   1.1625887728486942E-005   1.8038012427183230E-005  0.64452154999997469     
 chl2c          61  0.70742590233475577        3.7805373434125003E-002  0.70794139999999994        1.1407384745250533E-018   5.5412489119740144E-016
 chl          61   1.2760557217625634E-005   1.8038012427183230E-005  0.70742590233475577     
 chl2c          62  0.76415138942354555        3.7956103087269030E-002  0.76481592499999995        1.1407384745250533E-018   5.0161924137602989E-016
 chl          62   1.3783772258671247E-005   1.8038012427183230E-005  0.76415138942354555     
 chl2c          63  0.72597904999996932        3.7855601011927406E-002  0.72597904999999996        1.1407384745250533E-018   9.8390209124684039E-006
 chl          63   1.3095219125774123E-005   1.8038012427183230E-005  0.72597904999996932     
 chl2c          64  0.48321317912523148        2.5708982294816416E-002  0.48435739999999999        3.3476270383471038E-018   3.4237489700463325E-016
 chl          64   8.7162053300396421E-006   1.8038012427183230E-005  0.48321317912523148     
 chl2c          65  0.76379974999993827        3.7953597170552002E-002  0.76379975000000000        1.1407384745250533E-018   5.3882469245076089E-006
 chl          65   1.3777429382378330E-005   1.8038012427183230E-005  0.76379974999993827     
 chl2c          66  0.30430476565179077        3.1840477731474713E-002  0.35213202499999996        9.0523897098290161E-019   1.0140795609468264E-018
 chl          66   5.4890531444780823E-006   1.8038012427183230E-005  0.30430476565179077     
 chl2c          67  0.75676445139688053        3.7937587124568600E-002  0.75736760000000003        1.1407384745250533E-018   5.4199990803854109E-016
 chl          67   1.3650526578747430E-005   1.8038012427183230E-005  0.75676445139688053     
 chl2c          68  0.72590779999997290        3.7855407263856986E-002  0.72590779999999999        1.1407384745250533E-018   1.1077251009112730E-005
 chl          68   1.3093933917388749E-005   1.8038012427183230E-005  0.72590779999997290     
 chl2c          69  0.45524217499997094        2.1732330561541505E-002  0.45524217500000003        1.1407384745250533E-018   4.0625640283009765E-006
 chl          69   8.2116640100273992E-006   1.8038012427183230E-005  0.45524217499997094     
 chl2c          70  0.48026048223887630        3.2658010878182209E-002  0.48694062500000002        9.0523897098290161E-019   1.5845296281086704E-017
 chl          70   8.6629445469098617E-006   1.8038012427183230E-005  0.48026048223887630     
 chl2c          71  0.23986107499731599        4.3481058864416305E-002  0.23986107500000001        4.1432978944670766E-019   4.4406768385598980E-009
 chl          71   4.3266170515991144E-006   1.8038012427183230E-005  0.23986107499731599     
 chl2c          72  0.62752388310817153        3.7549776402781669E-002  0.62790522500000001        1.1407384745250533E-018   5.8934002002163424E-016
 chl          72   1.1319283601859474E-005   1.8038012427183230E-005  0.62752388310817153     
 chl2c          73  0.31412796539997423        3.1852614277819484E-002  0.35362212500000001        9.0523897098290161E-019   1.2730527540197141E-018
 chl          73   5.6662441436105191E-006   1.8038012427183230E-005  0.31412796539997423     
 chl2c          74  0.64719589999997673        3.7616827685877569E-002  0.64719590000000005        1.1407384745250533E-018   1.0276920115244673E-005
 chl          74   1.1674127687021616E-005   1.8038012427183230E-005  0.64719589999997673     
 chl2c          75  0.71498978446690953        3.7826830779512356E-002  0.71554212500000003        1.1407384745250533E-018   5.2830439341070306E-016
 chl          75   1.2896994617523174E-005   1.8038012427183230E-005  0.71498978446690953     
 chl2c          76  0.55513977499998302        3.7257729557919804E-002  0.55513977500000000        1.1407384745250533E-018   1.0330478749737783E-005
 chl          76   1.0013618160273397E-005   1.8038012427183230E-005  0.55513977499998302     
 chl2c          77  0.52973029999998078        3.7138172437479272E-002  0.52973029999999999        1.1407384745250533E-018   8.3479156717664733E-006
 chl          77   9.5552817344551547E-006   1.8038012427183230E-005  0.52973029999998078     
 chl2c          78  0.44860984395048731        4.7515248899399322E-002  0.45117492500000000        4.1432978944670766E-019   1.6346652312613767E-017
 chl          78   8.0920299401356197E-006   1.8038012427183230E-005  0.44860984395048731     
 prod   4.6098587720827520E-009   3.9029642268442050E-012   10.000000000000000     
 dcdom   1.2359817441210343E-012  -9.6353834192403980E-011
 chl2c           1  0.60826437499999619        3.7477407714772232E-002  0.60826437499999997        1.8581985876056873E-019   9.2113720431342716E-006
 chl           1   8.3341787642171049E-006   1.3701573044150673E-005  0.60826437499999619     
 chl2c           2  0.46225439801739482        3.2640259920490348E-002  0.48302390000000001        1.4447133102775727E-019   7.7656044829168048E-019
 chl           2   6.3336123994152329E-006   1.3701573044150673E-005  0.46225439801739482     
 chl2c           3  0.75120214474586922        3.7922212503796585E-002  0.75128689999999998        1.8581985876056873E-019   6.1866868642192148E-016
 chl           3   1.0292651057158174E-005   1.3701573044150673E-005  0.75120214474586922     
 chl2c           4  0.77318742499999515        3.7976509103863923E-002  0.77318742499999993        1.8581985876056873E-019   1.1464663864865790E-005
 chl           4   1.0593883980456204E-005   1.3701573044150673E-005  0.77318742499999515     
 chl2c           5  0.48474429636113608        2.5710500362372445E-002  0.48489679999999996        5.6506289316769978E-019   4.3546034517171941E-016
 chl           5   6.6417593843275270E-006   1.3701573044150673E-005  0.48474429636113608     
 chl2c           6  0.29179349564369989        3.1261039902252048E-002  0.29222855000000003        1.4447133102775727E-019   1.4158146655862436E-017
 chl           6   3.9980298943702151E-006   1.3701573044150673E-005  0.29179349564369989     
 chl2c           7  0.22770739999987144        4.3064391842467263E-002  0.22770740000000000        6.5053474444608867E-020   1.3119107320388655E-008
 chl           7   3.1199495737918734E-006   1.3701573044150673E-005  0.22770739999987144     
 chl2c           8  0.49578364999945018        4.7969800906495587E-002  0.49578364999999996        6.5053474444608867E-020   1.4541986520700881E-008
 chl           8   6.7930158945630985E-006   1.3701573044150673E-005  0.49578364999945018     
 chl2c           9  0.28700202499999727        2.4803669054600401E-002  0.28700202499999999        5.6506289316769978E-019   8.4241845147237525E-006
 chl           9   3.9323792093566205E-006   1.3701573044150673E-005  0.28700202499999727     
 chl2c          10  0.39094662499996102        2.5387016219684602E-002  0.39094662499999999        5.6506289316769978E-019   1.1072843767761499E-006
 chl          10   5.3565837388011472E-006   1.3701573044150673E-005  0.39094662499996102     
 chl2c          11  0.49732555594254835        2.1820572217820047E-002  0.49737575000000001        1.8581985876056873E-019   4.5786264244216331E-016
 chl          11   6.8141424314696679E-006   1.3701573044150673E-005  0.49732555594254835     
 chl2c          12  0.30387477576298461        4.5290941298723353E-002  0.30768942500000002        6.5053474444608867E-020   7.9724740190286970E-019
 chl          12   4.1635624363914401E-006   1.3701573044150673E-005  0.30387477576298461     
 chl2c          13  0.75658393762668708        3.7935816987997487E-002  0.75666275000000005        1.8581985876056873E-019   6.7488099065502893E-016
 chl          13   1.0366390085423190E-005   1.3701573044150673E-005  0.75658393762668708     
 chl2c          14  0.39756609267973403        4.6856526101924839E-002  0.39804095000000000        6.5053474444608867E-020   1.0839629928350728E-017
 chl          14   5.4472808587289516E-006   1.3701573044150673E-005  0.39756609267973403     
 chl2c          15  0.25607262499999756        2.0954299823745293E-002  0.25607262500000000        1.8581985876056873E-019   2.4732643638641707E-006
 chl          15   3.5085977760448704E-006   1.3701573044150673E-005  0.25607262499999756     
 chl2c          16  0.71425552723819785        3.7823443882273475E-002  0.71433214999999994        1.8581985876056873E-019   6.1866868642192148E-016
 chl          16   9.7864242786425187E-006   1.3701573044150673E-005  0.71425552723819785     
 chl2c          17  0.62574979066954317        3.7542254757581245E-002  0.62580860000000005        1.8581985876056873E-019   6.1866868642192148E-016
 chl          17   8.5737564642207389E-006   1.3701573044150673E-005  0.62574979066954317     
 chl2c          18  0.47911899895918020        2.5694475239060960E-002  0.47925950000000000        5.6506289316769978E-019   4.6174412101108355E-016
 chl          18   6.5646839610795582E-006   1.3701573044150673E-005  0.47911899895918020     
 chl2c          19  0.63367129999999683        3.7570220750293731E-002  0.63367130000000005        1.8581985876056873E-019   1.1461976129129743E-005
 chl          19   8.6822936029318711E-006   1.3701573044150673E-005  0.63367129999999683     
 chl2c          20  0.50674772715382077        3.7020645196759419E-002  0.50678202500000002        1.8581985876056873E-019   6.9567803877932270E-016
 chl          20   6.9432409985554111E-006   1.3701573044150673E-005  0.50674772715382077     
 chl2c          21  0.71973184999999618        3.7838475073783531E-002  0.71973185000000006        1.8581985876056873E-019   1.2471848127718975E-005
 chl          21   9.8614585149766438E-006   1.3701573044150673E-005  0.71973184999999618     
 chl2c          22  0.64616892499999656        3.7613353106285476E-002  0.64616892500000001        1.8581985876056873E-019   1.1288328322326801E-005
 chl          22   8.8535307247477709E-006   1.3701573044150673E-005  0.64616892499999656     
 chl2c          23  0.40467499046567268        3.2286562315070731E-002  0.41564179999999995        1.4447133102775727E-019   1.1078908089534120E-018
 chl          23   5.5446839410063914E-006   1.3701573044150673E-005  0.40467499046567268     
 chl2c          24  0.57592749388431819        3.7348402796863071E-002  0.57597492500000003        1.8581985876056873E-019   6.4978574282571034E-016
 chl          24   7.8911126255906260E-006   1.3701573044150673E-005  0.57592749388431819     
 chl2c          25  0.31030991691144488        4.5426679235459781E-002  0.31406487500000002        6.5053474444608867E-020   8.4420987871686712E-019
 chl          25   4.2517339928864885E-006   1.3701573044150673E-005  0.31030991691144488     
 chl2c          26  0.48411979236247710        4.7955660680174553E-002  0.49427735000000000        6.5053474444608867E-020   7.6625752711344433E-019
 chl          26   6.6332026971735369E-006   1.3701573044150673E-005  0.48411979236247710     
 chl2c          27  0.30935737499959287        4.5333133499525620E-002  0.30964730000000001        6.5053474444608867E-020   1.0746885111074870E-017
 chl          27   4.2386826703036331E-006   1.3701573044150673E-005  0.30935737499959287     
 chl2c          28  0.28720447601175736        3.1209236063453518E-002  0.28776342500000002        1.4447133102775727E-019   1.0680861949645327E-017
 chl          28   3.9351531066821131E-006   1.3701573044150673E-005  0.28720447601175736     
 chl2c          29  0.68676297499999328        3.7743217595736761E-002  0.68676297499999994        1.8581985876056873E-019   6.5526948867243430E-006
 chl          29   9.4097330659806302E-006   1.3701573044150673E-005  0.68676297499999328     
 chl2c          30  0.38921163663115155        2.5380056985171612E-002  0.38930277499999999        5.6506289316769978E-019   4.6971978922166606E-016
 chl          30   5.3328116689351527E-006   1.3701573044150673E-005  0.38921163663115155     
 chl2c          31  0.63559384999986679        3.7576959810037038E-002  0.63559385000000002        1.8581985876056873E-019   2.8162001672247613E-007
 chl          31   8.7086355621861202E-006   1.3701573044150673E-005  0.63559384999986679     
 chl2c          32  0.24722667499999929        2.0893126428578448E-002  0.24722667500000001        1.8581985876056873E-019   7.8306635506214634E-006
 chl          32   3.3873943459749892E-006   1.3701573044150673E-005  0.24722667499999929     
 chl2c          33  0.60343137499999722        3.7458922634011876E-002  0.60343137499999999        1.8581985876056873E-019   1.2227448290710532E-005
 chl          33   8.2679590616947380E-006   1.3701573044150673E-005  0.60343137499999722     
 chl2c          34  0.38231478982434791        2.5350269098008315E-002  0.38241020000000003        5.6506289316769978E-019   4.3293496733718839E-016
 chl          34   5.2383140186374153E-006   1.3701573044150673E-005  0.38231478982434791     
 chl2c          35  0.49558847230786285        2.5740370148566064E-002  0.49574644999999995        5.6506289316769978E-019   4.3939168780176964E-016
 chl          35   6.7903416531652259E-006   1.3701573044150673E-005  0.49558847230786285     
 chl2c          36  0.69580066082986536        3.7770393924465726E-002  0.69587337500000002        1.8581985876056873E-019   6.1866868642192148E-016
 chl          36   9.5335635785287090E-006   1.3701573044150673E-005  0.69580066082986536     
 chl2c          37  0.33191680459116885        2.1353674699533250E-002  0.33194060000000003        1.8581985876056873E-019   4.3018828026965692E-016
 chl          37   4.5477823426869857E-006   1.3701573044150673E-005  0.33191680459116885     
 chl2c          38  0.38452808265551586        2.1543295686358745E-002  0.38455722500000000        1.8581985876056873E-019   4.7144027355953976E-016
 chl          38   5.2686396120317578E-006   1.3701573044150673E-005  0.38452808265551586     
 chl2c          39  0.47077263782724454        2.5670077108751441E-002  0.47091117500000002        5.6506289316769978E-019   4.5211683870648734E-016
 chl          39   6.4503256843774814E-006   1.3701573044150673E-005  0.47077263782724454     
 chl2c          40  0.66868831741332335        3.7687445774703773E-002  0.66875547499999999        1.8581985876056873E-019   6.1866868642192148E-016
 chl          40   9.1620818248088606E-006   1.3701573044150673E-005  0.66868831741332335     
 chl2c          41  0.44291746124564607        2.5582381488167241E-002  0.44304987499999998        5.6506289316769978E-019   4.1870593221846224E-016
 chl          41   6.0686659477869947E-006   1.3701573044150673E-005  0.44291746124564607     
 chl2c          42  0.76226519794632508        3.7949995630725070E-002  0.76234377499999995        1.8581985876056873E-019   6.8710536551394681E-016
 chl          42   1.0444232288675545E-005   1.3701573044150673E-005  0.76226519794632508     
 chl2c          43  0.29539924999999900        2.1185090152268007E-002  0.29539925000000000        1.8581985876056873E-019   8.0660954983987909E-006
 chl          43   4.0474344010623121E-006   1.3701573044150673E-005  0.29539924999999900     
 chl2c          44  0.62411713295280447        3.7536352708156646E-002  0.62417262500000004        1.8581985876056873E-019   6.5223215430225860E-016
 chl          44   8.5513864852587474E-006   1.3701573044150673E-005  0.62411713295280447     
 chl2c          45  0.37215384403048546        4.6544927192009838E-002  0.37662252499999999        6.5053474444608867E-020   1.0202108798360032E-018
 chl          45   5.0990930776451530E-006   1.3701573044150673E-005  0.37215384403048546     
 chl2c          46  0.51876034999999165        3.7083195475449568E-002  0.51876034999999998        1.8581985876056873E-019   2.9992876404585196E-006
 chl          46   7.1078328279340543E-006   1.3701573044150673E-005  0.51876034999999165     
 chl2c          47  0.61957227178680097        3.7519784612651236E-002  0.61962282499999999        1.8581985876056873E-019   7.0555804102840604E-016
 chl          47   8.4891147380172266E-006   1.3701573044150673E-005  0.61957227178680097     
 chl2c          48  0.71418153892012426        3.7823212136301673E-002  0.71424949999999998        1.8581985876056873E-019   6.9736544474275311E-016
 chl          48   9.7854105222980186E-006   1.3701573044150673E-005  0.71418153892012426     
 chl2c          49  0.53272253257273372        3.7152990741888416E-002  0.53276120000000005        1.8581985876056873E-019   6.8194681862198745E-016
 chl          49   7.2991366923102477E-006   1.3701573044150673E-005  0.53272253257273372     
 chl2c          50  0.38132569999999838        2.1533072915600981E-002  0.38132569999999999        1.8581985876056873E-019   8.1914682211983837E-006
 chl          50   5.2247619321618645E-006   1.3701573044150673E-005  0.38132569999999838     
 chl2c          51  0.22274952323099514        2.0700971146093840E-002  0.22275920000000002        1.8581985876056873E-019   4.7641364162186215E-016
 chl          51   3.0520188630992173E-006   1.3701573044150673E-005  0.22274952323099514     
 chl2c          52  0.63692777073935780        3.7581825176985564E-002  0.63698869999999996        1.8581985876056873E-019   6.1866868642192148E-016
 chl          52   8.7269123746333643E-006   1.3701573044150673E-005  0.63692777073935780     
 chl2c          53  0.75269794999469897        3.7925801262726190E-002  0.75269794999999995        1.8581985876056873E-019   9.9299943818105019E-009
 chl          53   1.0313145942034839E-005   1.3701573044150673E-005  0.75269794999469897     
 chl2c          54  0.51857291856812060        3.7082433371327092E-002  0.51861124999999997        1.8581985876056873E-019   6.5186678634109841E-016
 chl          54   7.1052647224795029E-006   1.3701573044150673E-005  0.51857291856812060     
 chl2c          55  0.57808279999999757        3.7357235588660491E-002  0.57808280000000001        1.8581985876056873E-019   1.2877897610887688E-005
 chl          55   7.9206437097671121E-006   1.3701573044150673E-005  0.57808279999999757     
 chl2c          56  0.61620377137633797        3.7507394187257688E-002  0.61626080000000005        1.8581985876056873E-019   6.1866868642192148E-016
 chl          56   8.4429609835940156E-006   1.3701573044150673E-005  0.61620377137633797     
 chl2c          57  0.68157439976171197        3.7727617852646313E-002  0.68163462500000005        1.8581985876056873E-019   7.1671833703851838E-016
 chl          57   9.3386414233582474E-006   1.3701573044150673E-005  0.68157439976171197     
 chl2c          58  0.69416802499999608        3.7765358178394853E-002  0.69416802499999997        1.8581985876056873E-019   1.1437634846332192E-005
 chl          58   9.5111938994512565E-006   1.3701573044150673E-005  0.69416802499999608     
 chl2c          59  0.53705127499999739        3.7173699120809672E-002  0.53705127500000005        1.8581985876056873E-019   1.0114219769910707E-005
 chl          59   7.3584472728667147E-006   1.3701573044150673E-005  0.53705127499999739     
 chl2c          60  0.64452154999999667        3.7607757740906807E-002  0.64452155000000000        1.8581985876056873E-019   1.1862266182403553E-005
 chl          60   8.8309590958541652E-006   1.3701573044150673E-005  0.64452154999999667     
 chl2c          61  0.70787400536666023        3.7805373434125003E-002  0.70794139999999994        1.8581985876056873E-019   6.9086006618355083E-016
 chl          61   9.6989873905867999E-006   1.3701573044150673E-005  0.70787400536666023     
 chl2c          62  0.76473177834580119        3.7956103087269030E-002  0.76481592499999995        1.8581985876056873E-019   6.4579003224660879E-016
 chl          62   1.0478028320188238E-005   1.3701573044150673E-005  0.76473177834580119     
 chl2c          63  0.72597904999999574        3.7855601011927406E-002  0.72597904999999996        1.8581985876056873E-019   1.1464664142989030E-005
 chl          63   9.9470549820980555E-006   1.3701573044150673E-005  0.72597904999999574     
 chl2c          64  0.48419796925110314        2.5708982294816416E-002  0.48435739999999999        5.6506289316769978E-019   4.1560772366815576E-016
 chl          64   6.6342738435234116E-006   1.3701573044150673E-005  0.48419796925110314     
 chl2c          65  0.76379974999999367        3.7953597170552002E-002  0.76379975000000000        1.8581985876056873E-019   8.5634214903042092E-006
 chl          65   1.0465258065728936E-005   1.3701573044150673E-005  0.76379974999999367     
 chl2c          66  0.34177284006897984        3.1840477731474713E-002  0.35213202499999996        1.4447133102775727E-019   8.3920712759058736E-019
 chl          66   4.6828255327119534E-006   1.3701573044150673E-005  0.34177284006897984     
 chl2c          67  0.75728931635791263        3.7937587124568600E-002  0.75736760000000003        1.8581985876056873E-019   6.8070612658672743E-016
 chl          67   1.0376054883632868E-005   1.3701573044150673E-005  0.75728931635791263     
 chl2c          68  0.72590779999999566        3.7855407263856986E-002  0.72590779999999999        1.8581985876056873E-019   1.1390158494298130E-005
 chl          68   9.9460787450186583E-006   1.3701573044150673E-005  0.72590779999999566     
 chl2c          69  0.45524217499998870        2.1732330561541505E-002  0.45524217500000003        1.8581985876056873E-019   1.6957873425421349E-006
 chl          69   6.2375339135403686E-006   1.3701573044150673E-005  0.45524217499998870     
 chl2c          70  0.48564355094859540        3.2658010878182209E-002  0.48694062500000002        1.4447133102775727E-019   1.3169841310266711E-017
 chl          70   6.6540805867428886E-006   1.3701573044150673E-005  0.48564355094859540     
 chl2c          71  0.23986107499980283        4.3481058864416305E-002  0.23986107500000001        6.5053474444608867E-020   9.4903897392450079E-009
 chl          71   3.2864740395583012E-006   1.3701573044150673E-005  0.23986107499980283     
 chl2c          72  0.62784602097434139        3.7549776402781669E-002  0.62790522500000001        1.8581985876056873E-019   6.1866868642192148E-016
 chl          72   8.6024781168592938E-006   1.3701573044150673E-005  0.62784602097434139     
 chl2c          73  0.34525168809435935        3.1852614277819484E-002  0.35362212500000001        1.4447133102775727E-019   1.0536073497640656E-018
 chl          73   4.7304912230411903E-006   1.3701573044150673E-005  0.34525168809435935     
 chl2c          74  0.64719589999999705        3.7616827685877569E-002  0.64719590000000005        1.8581985876056873E-019   1.2648261768776392E-005
 chl          74   8.8676018977247934E-006   1.3701573044150673E-005  0.64719589999999705     
 chl2c          75  0.71546524245664667        3.7826830779512356E-002  0.71554212500000003        1.8581985876056873E-019   6.1866868642192148E-016
 chl          75   9.8029992800707153E-006   1.3701573044150673E-005  0.71546524245664667     
 chl2c          76  0.55513977499999712        3.7257729557919804E-002  0.55513977500000000        1.8581985876056873E-019   9.9589611702766505E-006
 chl          76   7.6062881768758302E-006   1.3701573044150673E-005  0.55513977499999712     
 chl2c          77  0.52973029999999766        3.7138172437479272E-002  0.52973029999999999        1.8581985876056873E-019   1.1329035679715365E-005
 chl          77   7.2581383991498173E-006   1.3701573044150673E-005  0.52973029999999766     
 chl2c          78  0.45068818831297447        4.7515248899399322E-002  0.45117492500000000        6.5053474444608867E-020   1.3588375835780128E-017
 chl          78   6.1751371323061533E-006   1.3701573044150673E-005  0.45068818831297447     
 prod   3.8137017498158013E-009   6.1482643556665927E-013   10.000000000000000     
 dcdom   1.2373993403920934E-012  -7.5316260587801721E-011
 chl2c           1  0.60826437499999930        3.7477407714772232E-002  0.60826437499999997        3.6079930518650975E-020   1.0415664115650340E-005
 chl           1   5.7023321256370357E-006   9.3747593316426638E-006  0.60826437499999930     
 chl2c           2  0.47787181693217462        3.2640259920490348E-002  0.48302390000000001        2.7445628803262647E-020   6.1480921947976844E-019
 chl           2   4.4799332751139384E-006   9.3747593316426638E-006  0.47787181693217462     
 chl2c           3  0.75127098110332025        3.7922212503796585E-002  0.75128689999999998        3.6079930518650975E-020   6.3962460681354181E-016
 chl           3   7.0429846406906905E-006   9.3747593316426638E-006  0.75127098110332025     
 chl2c           4  0.77318742499999893        3.7976509103863923E-002  0.77318742499999993        3.6079930518650975E-020   1.1229747002295224E-005
 chl           4   7.2484460276275025E-006   9.3747593316426638E-006  0.77318742499999893     
 chl2c           5  0.48486815749855239        2.5710500362372445E-002  0.48489679999999996        1.1367520247798871E-019   4.6654955441052195E-016
 chl           5   4.5455222841259384E-006   9.3747593316426638E-006  0.48486815749855239     
 chl2c           6  0.29212453375787095        3.1261039902252048E-002  0.29222855000000003        2.7445628803262647E-020   1.1262445577567418E-017
 chl           6   2.7385971988483629E-006   9.3747593316426638E-006  0.29212453375787095     
 chl2c           7  0.22770739999996062        4.3064391842467263E-002  0.22770740000000000        1.2138586378627605E-020   7.9874270303390322E-009
 chl           7   2.1347020730337194E-006   9.3747593316426638E-006  0.22770739999996062     
 chl2c           8  0.49578364999986674        4.7969800906495587E-002  0.49578364999999996        1.2138586378627605E-020   1.1196469102908497E-008
 chl           8   4.6478523993121111E-006   9.3747593316426638E-006  0.49578364999986674     
 chl2c           9  0.28700202499999944        2.4803669054600401E-002  0.28700202499999999        1.1367520247798871E-019   8.4594452559529131E-006
 chl           9   2.6905749120690859E-006   9.3747593316426638E-006  0.28700202499999944     
 chl2c          10  0.39092858133066172        2.5387016219684602E-002  0.39094662499999999        1.1367520247798871E-019   4.8142182260454834E-016
 chl          10   3.6648613658354491E-006   9.3747593316426638E-006  0.39092858133066172     
 chl2c          11  0.49736652701689160        2.1820572217820047E-002  0.49737575000000001        3.6079930518650975E-020   4.8386637649178771E-016
 chl          11   4.6626914903983076E-006   9.3747593316426638E-006  0.49736652701689160     
 chl2c          12  0.30678177455264621        4.5290941298723353E-002  0.30768942500000002        1.2138586378627605E-020   6.3119219050969754E-019
 chl          12   2.8760053037653158E-006   9.3747593316426638E-006  0.30678177455264621     
 chl2c          13  0.75664890497158999        3.7935816987997487E-002  0.75666275000000005        3.6079930518650975E-020   7.4599962294236456E-016
 chl          13   7.0934013826596166E-006   9.3747593316426638E-006  0.75664890497158999     
 chl2c          14  0.39792934090627030        4.6856526101924839E-002  0.39804095000000000        1.2138586378627605E-020   8.6133531240121396E-018
 chl          14   3.7304918019954724E-006   9.3747593316426638E-006  0.39792934090627030     
 chl2c          15  0.25607021524711238        2.0954299823745293E-002  0.25607262500000000        3.6079930518650975E-020   4.9089138167856537E-016
 chl          15   2.4005966399436122E-006   9.3747593316426638E-006  0.25607021524711238     
 chl2c          16  0.71433214999997852        3.7823443882273475E-002  0.71433214999999994        3.6079930518650975E-020   4.3044485113014672E-007
 chl          16   6.6966919891046656E-006   9.3747593316426638E-006  0.71433214999997852     
 chl2c          17  0.62579755448620156        3.7542254757581245E-002  0.62580860000000005        3.6079930518650975E-020   6.3962460681354181E-016
 chl          17   5.8667014636386764E-006   9.3747593316426638E-006  0.62579755448620156     
 chl2c          18  0.47923268455987789        2.5694475239060960E-002  0.47925950000000000        1.1367520247798871E-019   4.8681950647993311E-016
 chl          18   4.4926910816058805E-006   9.3747593316426638E-006  0.47923268455987789     
 chl2c          19  0.63367129999999938        3.7570220750293731E-002  0.63367130000000005        3.6079930518650975E-020   1.1249435268769756E-005
 chl          19   5.9405159328691319E-006   9.3747593316426638E-006  0.63367129999999938     
 chl2c          20  0.50677595444715884        3.7020645196759419E-002  0.50678202500000002        3.6079930518650975E-020   7.6321106104110030E-016
 chl          20   4.7509026080056199E-006   9.3747593316426638E-006  0.50677595444715884     
 chl2c          21  0.71973184999999940        3.7838475073783531E-002  0.71973185000000006        3.6079930518650975E-020   1.3207525745072925E-005
 chl          21   6.7473128770679327E-006   9.3747593316426638E-006  0.71973184999999940     
 chl2c          22  0.64616892499999934        3.7613353106285476E-002  0.64616892500000001        3.6079930518650975E-020   1.0510699869344229E-005
 chl          22   6.0576781594612523E-006   9.3747593316426638E-006  0.64616892499999934     
 chl2c          23  0.41564179999656387        3.2286562315070731E-002  0.41564179999999995        2.7445628803262647E-020   6.8994118166661702E-010
 chl          23   3.8965418431385409E-006   9.3747593316426638E-006  0.41564179999656387     
 chl2c          24  0.57596666900384985        3.7348402796863071E-002  0.57597492500000003        3.6079930518650975E-020   7.2488171291397058E-016
 chl          24   5.3995489049589828E-006   9.3747593316426638E-006  0.57596666900384985     
 chl2c          25  0.31406487499676577        4.5426679235459781E-002  0.31406487500000002        1.2138586378627605E-020   1.8509920162575038E-010
 chl          25   2.9442826176171167E-006   9.3747593316426638E-006  0.31406487499676577     
 chl2c          26  0.49184515127191136        4.7955660680174553E-002  0.49427735000000000        1.2138586378627605E-020   6.0664994756825388E-019
 chl          26   4.6109299216095484E-006   9.3747593316426638E-006  0.49184515127191136     
 chl2c          27  0.30957916820422293        4.5333133499525620E-002  0.30964730000000001        1.2138586378627605E-020   8.5393990341226591E-018
 chl          27   2.9022301960047127E-006   9.3747593316426638E-006  0.30957916820422293     
 chl2c          28  0.28762958970399427        3.1209236063453518E-002  0.28776342500000002        2.7445628803262647E-020   8.4867553234861212E-018
 chl          28   2.6964581801340708E-006   9.3747593316426638E-006  0.28762958970399427     
 chl2c          29  0.68676297499999739        3.7743217595736761E-002  0.68676297499999994        3.6079930518650975E-020   3.2730999010366774E-006
 chl          29   6.4382376085079026E-006   9.3747593316426638E-006  0.68676297499999739     
 chl2c          30  0.38928529743675122        2.5380056985171612E-002  0.38930277499999999        1.1367520247798871E-019   4.9284500498793923E-016
 chl          30   3.6494559748164734E-006   9.3747593316426638E-006  0.38928529743675122     
 chl2c          31  0.63558437278082414        3.7576959810037038E-002  0.63559385000000002        3.6079930518650975E-020   7.6896694105555053E-016
 chl          31   5.9584505297732803E-006   9.3747593316426638E-006  0.63558437278082414     
 chl2c          32  0.24722667499999984        2.0893126428578448E-002  0.24722667500000001        3.6079930518650975E-020   5.8635393905450113E-006
 chl          32   2.3176905784872364E-006   9.3747593316426638E-006  0.24722667499999984     
 chl2c          33  0.60343137499999944        3.7458922634011876E-002  0.60343137499999999        3.6079930518650975E-020   1.2897683125760132E-005
 chl          33   5.6570239137872087E-006   9.3747593316426638E-006  0.60343137499999944     
 chl2c          34  0.38239230938130603        2.5350269098008315E-002  0.38241020000000003        1.1367520247798871E-019   4.6456768580709582E-016
 chl          34   3.5848358707207872E-006   9.3747593316426638E-006  0.38239230938130603     
 chl2c          35  0.49571670733434714        2.5740370148566064E-002  0.49574644999999995        1.1367520247798871E-019   4.6962263499705000E-016
 chl          35   4.6472248279338459E-006   9.3747593316426638E-006  0.49571670733434714     
 chl2c          36  0.69585971777543343        3.7770393924465726E-002  0.69587337500000002        3.6079930518650975E-020   6.3962460681354181E-016
 chl          36   6.5235173827294750E-006   9.3747593316426638E-006  0.69585971777543343     
 chl2c          37  0.33193630138890751        2.1353674699533250E-002  0.33194060000000003        3.6079930518650975E-020   4.6240515496464162E-016
 chl          37   3.1118229389566123E-006   9.3747593316426638E-006  0.33193630138890751     
 chl2c          38  0.38455182611791955        2.1543295686358745E-002  0.38455722500000000        3.6079930518650975E-020   4.9413737996412039E-016
 chl          38   3.6050808203991934E-006   9.3747593316426638E-006  0.38455182611791955     
 chl2c          39  0.47088488875989792        2.5670077108751441E-002  0.47091117500000002        1.1367520247798871E-019   4.7946953811071221E-016
 chl          39   4.4144325050313708E-006   9.3747593316426638E-006  0.47088488875989792     
 chl2c          40  0.66875547499998034        3.7687445774703773E-002  0.66875547499999999        3.6079930518650975E-020   4.1094826362203581E-007
 chl          40   6.2694216298431875E-006   9.3747593316426638E-006  0.66875547499998034     
 chl2c          41  0.44304987499999438        2.5582381488167241E-002  0.44304987499999998        1.1367520247798871E-019   1.9884278746494786E-006
 chl          41   4.1534859500393127E-006   9.3747593316426638E-006  0.44304987499999438     
 chl2c          42  0.76234377499999351        3.7949995630725070E-002  0.76234377499999995        3.6079930518650975E-020   1.6289769806938107E-006
 chl          42   7.1467894186008846E-006   9.3747593316426638E-006  0.76234377499999351     
 chl2c          43  0.29539924999999978        2.1185090152268007E-002  0.29539925000000000        3.6079930518650975E-020   8.5962452032150241E-006
 chl          43   2.7692968754977421E-006   9.3747593316426638E-006  0.29539924999999978     
 chl2c          44  0.62416295716124548        3.7536352708156646E-002  0.62417262500000004        3.6079930518650975E-020   7.2695747482138241E-016
 chl          44   5.8513775071130664E-006   9.3747593316426638E-006  0.62416295716124548     
 chl2c          45  0.37555978168315196        4.6544927192009838E-002  0.37662252499999999        1.2138586378627605E-020   8.0778373365507609E-019
 chl          45   3.5207825679238103E-006   9.3747593316426638E-006  0.37555978168315196     
 chl2c          46  0.51876034999995380        3.7083195475449568E-002  0.51876034999999998        3.6079930518650975E-020   1.0500650147650706E-007
 chl          46   4.8632534320482810E-006   9.3747593316426638E-006  0.51876034999995380     
 chl2c          47  0.61961384529185937        3.7519784612651236E-002  0.61962282499999999        3.6079930518650975E-020   7.7129762916848643E-016
 chl          47   5.8087306781648526E-006   9.3747593316426638E-006  0.61961384529185937     
 chl2c          48  0.71423746361387441        3.7823212136301673E-002  0.71424949999999998        3.6079930518650975E-020   7.6459623795181617E-016
 chl          48   6.6958043270229568E-006   9.3747593316426638E-006  0.71423746361387441     
 chl2c          49  0.53275438997162639        3.7152990741888416E-002  0.53276120000000005        3.6079930518650975E-020   7.5187630935596969E-016
 chl          49   4.9944441888600990E-006   9.3747593316426638E-006  0.53275438997162639     
 chl2c          50  0.38132569999999966        2.1533072915600981E-002  0.38132569999999999        3.6079930518650975E-020   7.7779390940899568E-006
 chl          50   3.5748366644701677E-006   9.3747593316426638E-006  0.38132569999999966     
 chl2c          51  0.22275740196777594        2.0700971146093840E-002  0.22275920000000002        3.6079930518650975E-020   4.9785860696898037E-016
 chl          51   2.0882970327898834E-006   9.3747593316426638E-006  0.22275740196777594     
 chl2c          52  0.63697725630728030        3.7581825176985564E-002  0.63698869999999996        3.6079930518650975E-020   6.3962460681354181E-016
 chl          52   5.9715084776108171E-006   9.3747593316426638E-006  0.63697725630728030     
 chl2c          53  0.75269794999999540        3.7925801262726190E-002  0.75269794999999995        3.6079930518650975E-020   2.2858930341610484E-006
 chl          53   7.0563621306707598E-006   9.3747593316426638E-006  0.75269794999999540     
 chl2c          54  0.51860457286634609        3.7082433371327092E-002  0.51861124999999997        3.6079930518650975E-020   7.2664769925532182E-016
 chl          54   4.8617930589113361E-006   9.3747593316426638E-006  0.51860457286634609     
 chl2c          55  0.57808279999999945        3.7357235588660491E-002  0.57808280000000001        3.6079930518650975E-020   1.2396401019080793E-005
 chl          55   5.4193871237621146E-006   9.3747593316426638E-006  0.57808279999999945     
 chl2c          56  0.61625008894936961        3.7507394187257688E-002  0.61626080000000005        3.6079930518650975E-020   6.3962460681354181E-016
 chl          56   5.7771962720037248E-006   9.3747593316426638E-006  0.61625008894936961     
 chl2c          57  0.68162388423461995        3.7727617852646313E-002  0.68163462500000005        3.6079930518650975E-020   7.8036343154852784E-016
 chl          57   6.3900598693990220E-006   9.3747593316426638E-006  0.68162388423461995     
 chl2c          58  0.69416802499999919        3.7765358178394853E-002  0.69416802499999997        3.6079930518650975E-020   1.1249251883123419E-005
 chl          58   6.5076581700967007E-006   9.3747593316426638E-006  0.69416802499999919     
 chl2c          59  0.53705127499999961        3.7173699120809672E-002  0.53705127500000005        3.6079930518650975E-020   1.2423366156401633E-005
 chl          59   5.0347264518768364E-006   9.3747593316426638E-006  0.53705127499999961     
 chl2c          60  0.64452154999999944        3.7607757740906807E-002  0.64452155000000000        3.6079930518650975E-020   1.2676113299990661E-005
 chl          60   6.0422344153072887E-006   9.3747593316426638E-006  0.64452154999999944     
 chl2c          61  0.70792949196581556        3.7805373434125003E-002  0.70794139999999994        3.6079930518650975E-020   7.5924674671939961E-016
 chl          61   6.6366686109515794E-006   9.3747593316426638E-006  0.70792949196581556     
 chl2c          62  0.76480129935873031        3.7956103087269030E-002  0.76481592499999995        3.6079930518650975E-020   7.2148336000153180E-016
 chl          62   7.1698281180156914E-006   9.3747593316426638E-006  0.76480129935873031     
 chl2c          63  0.72597904999999918        3.7855601011927406E-002  0.72597904999999996        3.6079930518650975E-020   1.1229768066613435E-005
 chl          63   6.8058788735645680E-006   9.3747593316426638E-006  0.72597904999999918     
 chl2c          64  0.48432782292506787        2.5708982294816416E-002  0.48435739999999999        1.1367520247798871E-019   4.5080204437378059E-016
 chl          64   4.5404567775409561E-006   9.3747593316426638E-006  0.48432782292506787     
 chl2c          65  0.76379974999999900        3.7953597170552002E-002  0.76379975000000000        3.6079930518650975E-020   1.0068774277745559E-005
 chl          65   7.1604388338188240E-006   9.3747593316426638E-006  0.76379974999999900     
 chl2c          66  0.34958951570881935        3.1840477731474713E-002  0.35213202499999996        2.7445628803262647E-020   6.6442285762124684E-019
 chl          66   3.2773175746356939E-006   9.3747593316426638E-006  0.34958951570881935     
 chl2c          67  0.75735381870524043        3.7937587124568600E-002  0.75736760000000003        3.6079930518650975E-020   7.5084659718657007E-016
 chl          67   7.1000097792621590E-006   9.3747593316426638E-006  0.75735381870524043     
 chl2c          68  0.72590779999999921        3.7855407263856986E-002  0.72590779999999999        3.6079930518650975E-020   1.1246400720649460E-005
 chl          68   6.8052109219621894E-006   9.3747593316426638E-006  0.72590779999999921     
 chl2c          69  0.45523416950910167        2.1732330561541505E-002  0.45524217500000003        3.6079930518650975E-020   4.6700880705267454E-016
 chl          69   4.2677107786880488E-006   9.3747593316426638E-006  0.45523416950910167     
 chl2c          70  0.48663013267471722        3.2658010878182209E-002  0.48694062500000002        2.7445628803262647E-020   1.0472908907516614E-017
 chl          70   4.5620403773508130E-006   9.3747593316426638E-006  0.48663013267471722     
 chl2c          71  0.23986107499996756        4.3481058864416305E-002  0.23986107500000001        1.2138586378627605E-020   1.0758923713570237E-008
 chl          71   2.2486398511537867E-006   9.3747593316426638E-006  0.23986107499996756     
 chl2c          72  0.62789410535207213        3.7549776402781669E-002  0.62790522500000001        3.6079930518650975E-020   6.3962460681354181E-016
 chl          72   5.8863561234327604E-006   9.3747593316426638E-006  0.62789410535207213     
 chl2c          73  0.35157702910429811        3.1852614277819484E-002  0.35362212500000001        2.7445628803262647E-020   8.3423697372091750E-019
 chl          73   3.2959500343867231E-006   9.3747593316426638E-006  0.35157702910429811     
 chl2c          74  0.64719589999999949        3.7616827685877569E-002  0.64719590000000005        3.6079930518650975E-020   1.3315792188767508E-005
 chl          74   6.0673058029258671E-006   9.3747593316426638E-006  0.64719589999999949     
 chl2c          75  0.71552768483412055        3.7826830779512356E-002  0.71554212500000003        3.6079930518650975E-020   6.3962460681354181E-016
 chl          75   6.7078998404473427E-006   9.3747593316426638E-006  0.71552768483412055     
 chl2c          76  0.55513977499999922        3.7257729557919804E-002  0.55513977500000000        3.6079930518650975E-020   7.8550845591231518E-006
 chl          76   5.2043017860472515E-006   9.3747593316426638E-006  0.55513977499999922     
 chl2c          77  0.52973029999999965        3.7138172437479272E-002  0.52973029999999999        3.6079930518650975E-020   1.2489231284978460E-005
 chl          77   4.9660940731788643E-006   9.3747593316426638E-006  0.52973029999999965     
 chl2c          78  0.45106063596079721        4.7515248899399322E-002  0.45117492500000000        1.2138586378627605E-020   1.0807205717358169E-017
 chl          78   4.2285849061101581E-006   9.3747593316426638E-006  0.45106063596079721     
 prod   3.0184515670453773E-009   1.1515102814831732E-013   10.000000000000000     
 dcdom   1.2388169394831787E-012  -5.4281945007189883E-011
 chl2c           1  0.60826437499999986        3.7477407714772232E-002  0.60826437499999997        8.4161247729152094E-021   1.0926783547162244E-005
 chl           1   3.0705468337976654E-006   5.0480464745246111E-006  0.60826437499999986     
 chl2c           2  0.48141515768568161        3.2640259920490348E-002  0.48302390000000001        6.2674998014429593E-021   4.5296665055742320E-019
 chl           2   2.4302060895379146E-006   5.0480464745246111E-006  0.48141515768568161     
 chl2c           3  0.75128333350846643        3.7922212503796585E-002  0.75128689999999998        8.4161247729152094E-021   6.6596367803232966E-016
 chl           3   3.7925131830865115E-006   5.0480464745246111E-006  0.75128333350846643     
 chl2c           4  0.77318742499999971        3.7976509103863923E-002  0.77318742499999993        8.4161247729152094E-021   1.1019164917932281E-005
 chl           4   3.9030860549180105E-006   5.0480464745246111E-006  0.77318742499999971     
 chl2c           5  0.48489022708260582        2.5710500362372445E-002  0.48489679999999996        2.7378380192196583E-020   4.8967995799580224E-016
 chl           5   2.4477484013557865E-006   5.0480464745246111E-006  0.48489022708260582     
 chl2c           6  0.29222854999991721        3.1261039902252048E-002  0.29222855000000003        6.2674998014429593E-021   3.2325994357803790E-009
 chl           6   1.4751833015825210E-006   5.0480464745246111E-006  0.29222854999991721     
 chl2c           7  0.22770739999998002        4.3064391842467263E-002  0.22770740000000000        2.7227968754624774E-021   3.5311350387358067E-009
 chl           7   1.1494775377930646E-006   5.0480464745246111E-006  0.22770739999998002     
 chl2c           8  0.49578364999995750        4.7969800906495587E-002  0.49578364999999996        2.7227968754624774E-021   7.8812500204950506E-009
 chl           8   2.5027389065092291E-006   5.0480464745246111E-006  0.49578364999995750     
 chl2c           9  0.28700202499999988        2.4803669054600401E-002  0.28700202499999999        2.7378380192196583E-020   8.2706509732710906E-006
 chl           9   1.4487995604826738E-006   5.0480464745246111E-006  0.28700202499999988     
 chl2c          10  0.39094244826337160        2.5387016219684602E-002  0.39094662499999999        2.7378380192196583E-020   5.0092298530100074E-016
 chl          10   1.9734956476979334E-006   5.0480464745246111E-006  0.39094244826337160     
 chl2c          11  0.49737367940447569        2.1820572217820047E-002  0.49737575000000001        8.4161247729152094E-021   5.0275257651664471E-016
 chl          11   2.5107654488390977E-006   5.0480464745246111E-006  0.49737367940447569     
 chl2c          12  0.30741252146811948        4.5290941298723353E-002  0.30768942500000002        2.7227968754624774E-021   4.6504060618491229E-019
 chl          12   1.5518326952218619E-006   5.0480464745246111E-006  0.30741252146811948     
 chl2c          13  0.75665974561103722        3.7935816987997487E-002  0.75666275000000005        8.4161247729152094E-021   8.0191621748096776E-016
 chl          13   3.8196535612464854E-006   5.0480464745246111E-006  0.75665974561103722     
 chl2c          14  0.39800709545552726        4.6856526101924839E-002  0.39804095000000000        2.7227968754624774E-021   6.3706954168332384E-018
 chl          14   2.0091583150500548E-006   5.0480464745246111E-006  0.39800709545552726     
 chl2c          15  0.25607208180054764        2.0954299823745293E-002  0.25607262500000000        8.4161247729152094E-021   5.0798189281529328E-016
 chl          15   1.2926637697574324E-006   5.0480464745246111E-006  0.25607208180054764     
 chl2c          16  0.71433214999999917        3.7823443882273475E-002  0.71433214999999994        8.4161247729152094E-021   2.6213832148572701E-006
 chl          16   3.6059818914470817E-006   5.0480464745246111E-006  0.71433214999999917     
 chl2c          17  0.62580612535467373        3.7542254757581245E-002  0.62580860000000005        8.4161247729152094E-021   6.6596367803232966E-016
 chl          17   3.1590984048325674E-006   5.0480464745246111E-006  0.62580612535467373     
 chl2c          18  0.47925327326957096        2.5694475239060960E-002  0.47925950000000000        2.7378380192196583E-020   5.0495596642093074E-016
 chl          18   2.4192927965328379E-006   5.0480464745246111E-006  0.47925327326957096     
 chl2c          19  0.63367129999999994        3.7570220750293731E-002  0.63367130000000005        8.4161247729152094E-021   1.1166190600050540E-005
 chl          19   3.1988021719724270E-006   5.0480464745246111E-006  0.63367129999999994     
 chl2c          20  0.50678069990772356        3.7020645196759419E-002  0.50678202500000002        8.4161247729152094E-021   8.1560018706584808E-016
 chl          20   2.5582525255262990E-006   5.0480464745246111E-006  0.50678069990772356     
 chl2c          21  0.71973184999999995        3.7838475073783531E-002  0.71973185000000006        8.4161247729152094E-021   1.3534706454458295E-005
 chl          21   3.6332398279955758E-006   5.0480464745246111E-006  0.71973184999999995     
 chl2c          22  0.64616892499999989        3.7613353106285476E-002  0.64616892500000001        8.4161247729152094E-021   9.3202119106674725E-006
 chl          22   3.2618907637936073E-006   5.0480464745246111E-006  0.64616892499999989     
 chl2c          23  0.41564179999984685        3.2286562315070731E-002  0.41564179999999995        6.2674998014429593E-021   3.5368725038064072E-009
 chl          23   2.0981791231542903E-006   5.0480464745246111E-006  0.41564179999984685     
 chl2c          24  0.57597314642857333        3.7348402796863071E-002  0.57597492500000003        8.4161247729152094E-021   7.8490423350591255E-016
 chl          24   2.9075392112496072E-006   5.0480464745246111E-006  0.57597314642857333     
 chl2c          25  0.31406487499994284        4.5426679235459781E-002  0.31406487500000002        2.7227968754624774E-021   2.3486612289600590E-009
 chl          25   1.5854140850154741E-006   5.0480464745246111E-006  0.31406487499994284     
 chl2c          26  0.49353431207318149        4.7955660680174553E-002  0.49427735000000000        2.7227968754624774E-021   4.4695348415656533E-019
 chl          26   2.4913841441179532E-006   5.0480464745246111E-006  0.49353431207318149     
 chl2c          27  0.30962663372712274        4.5333133499525620E-002  0.30964730000000001        2.7227968754624774E-021   6.3158047712195521E-018
 chl          27   1.5630096368051251E-006   5.0480464745246111E-006  0.30962663372712274     
 chl2c          28  0.28772208795225285        3.1209236063453518E-002  0.28776342500000002        6.2674998014429593E-021   6.2767332720844871E-018
 chl          28   1.4524344717302301E-006   5.0480464745246111E-006  0.28772208795225285     
 chl2c          29  0.68676297499999583        3.7743217595736761E-002  0.68676297499999994        8.4161247729152094E-021   4.9064859115974119E-007
 chl          29   3.4668114147827627E-006   5.0480464745246111E-006  0.68676297499999583     
 chl2c          30  0.38929870246529319        2.5380056985171612E-002  0.38930277499999999        2.7378380192196583E-020   5.0942870879227339E-016
 chl          30   1.9651979425169287E-006   5.0480464745246111E-006  0.38929870246529319     
 chl2c          31  0.63559177722685500        3.7576959810037038E-002  0.63559385000000002        8.4161247729152094E-021   8.2014067796398247E-016
 chl          31   3.2084968302668573E-006   5.0480464745246111E-006  0.63559177722685500     
 chl2c          32  0.24722667499999995        2.0893126428578448E-002  0.24722667500000001        8.4161247729152094E-021   3.1502882357515422E-006
 chl          32   1.2480117451421915E-006   5.0480464745246111E-006  0.24722667499999995     
 chl2c          33  0.60343137499999988        3.7458922634011876E-002  0.60343137499999999        8.4161247729152094E-021   1.3250242892411252E-005
 chl          33   3.0461496251862878E-006   5.0480464745246111E-006  0.60343137499999988     
 chl2c          34  0.38240609924687358        2.5350269098008315E-002  0.38241020000000003        2.7378380192196583E-020   4.8816698881104753E-016
 chl          34   1.9304037611398885E-006   5.0480464745246111E-006  0.38240609924687358     
 chl2c          35  0.49573961231541375        2.5740370148566064E-002  0.49574644999999995        2.7378380192196583E-020   4.9201905970916397E-016
 chl          35   2.5025166022310219E-006   5.0480464745246111E-006  0.49573961231541375     
 chl2c          36  0.69587031522031184        3.7770393924465726E-002  0.69587337500000002        8.4161247729152094E-021   6.6596367803232966E-016
 chl          36   3.5127856914742249E-006   5.0480464745246111E-006  0.69587031522031184     
 chl2c          37  0.33193964696680617        2.1353674699533250E-002  0.33194060000000003        8.4161247729152094E-021   4.8651209881044391E-016
 chl          37   1.6756467646257298E-006   5.0480464745246111E-006  0.33193964696680617     
 chl2c          38  0.38455600571383503        2.1543295686358745E-002  0.38455722500000000        8.4161247729152094E-021   5.1038405411863823E-016
 chl          38   1.9412565889009911E-006   5.0480464745246111E-006  0.38455600571383503     
 chl2c          39  0.47090509713483891        2.5670077108751441E-002  0.47091117500000002        2.7378380192196583E-020   4.9945812380860692E-016
 chl          39   2.3771508154271933E-006   5.0480464745246111E-006  0.47090509713483891     
 chl2c          40  0.66875547499999921        3.7687445774703773E-002  0.66875547499999999        8.4161247729152094E-021   2.5949481586031255E-006
 chl          40   3.3759087178927777E-006   5.0480464745246111E-006  0.66875547499999921     
 chl2c          41  0.44304987499999937        2.5582381488167241E-002  0.44304987499999998        2.7378380192196583E-020   4.5285389619695801E-006
 chl          41   2.2365363595323165E-006   5.0480464745246111E-006  0.44304987499999937     
 chl2c          42  0.76234377499999939        3.7949995630725070E-002  0.76234377499999995        8.4161247729152094E-021   4.6470781736377407E-006
 chl          42   3.8483468057645306E-006   5.0480464745246111E-006  0.76234377499999939     
 chl2c          43  0.29539924999999995        2.1185090152268007E-002  0.29539925000000000        8.4161247729152094E-021   8.5591426303087077E-006
 chl          43   1.4911891425397139E-006   5.0480464745246111E-006  0.29539924999999995     
 chl2c          44  0.62417054078185985        3.7536352708156646E-002  0.62417262500000004        8.4161247729152094E-021   7.8658739572004768E-016
 chl          44   3.1508418978959874E-006   5.0480464745246111E-006  0.62417054078185985     
 chl2c          45  0.37629836245651432        4.6544927192009838E-002  0.37662252499999999        2.7227968754624774E-021   5.9519741406756543E-019
 chl          45   1.8995716219679914E-006   5.0480464745246111E-006  0.37629836245651432     
 chl2c          46  0.51875896901055751        3.7083195475449568E-002  0.51876034999999998        8.4161247729152094E-021   8.2001954610142361E-016
 chl          46   2.6187193846417668E-006   5.0480464745246111E-006  0.51875896901055751     
 chl2c          47  0.61962085948015921        3.7519784612651236E-002  0.61962282499999999        8.4161247729152094E-021   8.2197417874315225E-016
 chl          47   3.1278748952407270E-006   5.0480464745246111E-006  0.61962085948015921     
 chl2c          48  0.71424949999999854        3.7823212136301673E-002  0.71424949999999998        8.4161247729152094E-021   1.5775944221535398E-006
 chl          48   3.6055646704059590E-006   5.0480464745246111E-006  0.71424949999999854     
 chl2c          49  0.53275971924102916        3.7152990741888416E-002  0.53276120000000005        8.4161247729152094E-021   8.0660659253712067E-016
 chl          49   2.6893958224833991E-006   5.0480464745246111E-006  0.53275971924102916     
 chl2c          50  0.38132569999999988        2.1533072915600981E-002  0.38132569999999999        8.4161247729152094E-021   6.4718839556617802E-006
 chl          50   1.9249498555306290E-006   5.0480464745246111E-006  0.38132569999999988     
 chl2c          51  0.22275879306245538        2.0700971146093840E-002  0.22275920000000002        8.4161247729152094E-021   5.1312705666319948E-016
 chl          51   1.1244967399882853E-006   5.0480464745246111E-006  0.22275879306245538     
 chl2c          52  0.63698869999999741        3.7581825176985564E-002  0.63698869999999996        8.4161247729152094E-021   6.8646962976314964E-007
 chl          52   3.2155485613470021E-006   5.0480464745246111E-006  0.63698869999999741     
 chl2c          53  0.75269794999999939        3.7925801262726190E-002  0.75269794999999995        8.4161247729152094E-021   4.8449119119867643E-006
 chl          53   3.7996542328793991E-006   5.0480464745246111E-006  0.75269794999999939     
 chl2c          54  0.51860981068294287        3.7082433371327092E-002  0.51861124999999997        8.4161247729152094E-021   7.8633636273236977E-016
 chl          54   2.6179664264719059E-006   5.0480464745246111E-006  0.51860981068294287     
 chl2c          55  0.57808279999999990        3.7357235588660491E-002  0.57808280000000001        8.4161247729152094E-021   1.0871355006629850E-005
 chl          55   2.9181888405233152E-006   5.0480464745246111E-006  0.57808279999999990     
 chl2c          56  0.61625840028855816        3.7507394187257688E-002  0.61626080000000005        8.4161247729152094E-021   6.6596367803232966E-016
 chl          56   3.1109010449728327E-006   5.0480464745246111E-006  0.61625840028855816     
 chl2c          57  0.68163226675848243        3.7727617852646313E-002  0.68163462500000005        8.4161247729152094E-021   8.2907853749272258E-016
 chl          57   3.4409113611323764E-006   5.0480464745246111E-006  0.68163226675848243     
 chl2c          58  0.69416802499999986        3.7765358178394853E-002  0.69416802499999997        8.4161247729152094E-021   1.1175494020432783E-005
 chl          58   3.5041924513289614E-006   5.0480464745246111E-006  0.69416802499999986     
 chl2c          59  0.53705127499999994        3.7173699120809672E-002  0.53705127500000005        8.4161247729152094E-021   1.3501653813833350E-005
 chl          59   2.7110597954026970E-006   5.0480464745246111E-006  0.53705127499999994     
 chl2c          60  0.64452154999999989        3.7607757740906807E-002  0.64452155000000000        8.4161247729152094E-021   1.3119559118275180E-005
 chl          60   3.2535747382326373E-006   5.0480464745246111E-006  0.64452154999999989     
 chl2c          61  0.70793880419645172        3.7805373434125003E-002  0.70794139999999994        8.4161247729152094E-021   8.1246259642785877E-016
 chl          61   3.5737079847030669E-006   5.0480464745246111E-006  0.70793880419645172     
 chl2c          62  0.76481592499999862        3.7956103087269030E-002  0.76481592499999995        8.4161247729152094E-021   1.7646149588467319E-006
 chl          62   3.8608263338565223E-006   5.0480464745246111E-006  0.76481592499999862     
 chl2c          63  0.72597904999999985        3.7855601011927406E-002  0.72597904999999996        8.4161247729152094E-021   1.1019264056563357E-005
 chl          63   3.6647759839312258E-006   5.0480464745246111E-006  0.72597904999999985     
 chl2c          64  0.48435067526730441        2.5708982294816416E-002  0.48435739999999999        2.7378380192196583E-020   4.7756069676998239E-016
 chl          64   2.4450247187167309E-006   5.0480464745246111E-006  0.48435067526730441     
 chl2c          65  0.76379974999999978        3.7953597170552002E-002  0.76379975000000000        8.4161247729152094E-021   1.0773789374011750E-005
 chl          65   3.8556966352302786E-006   5.0480464745246111E-006  0.76379974999999978     
 chl2c          66  0.35134004032229205        3.1840477731474713E-002  0.35213202499999996        6.2674998014429593E-021   4.8953159246451043E-019
 chl          66   1.7735808519082810E-006   5.0480464745246111E-006  0.35134004032229205     
 chl2c          67  0.75736460446691667        3.7937587124568600E-002  0.75736760000000003        8.4161247729152094E-021   8.0578610852444942E-016
 chl          67   3.8232117215089454E-006   5.0480464745246111E-006  0.75736460446691667     
 chl2c          68  0.72590779999999988        3.7855407263856986E-002  0.72590779999999999        8.4161247729152094E-021   1.1175848038623212E-005
 chl          68   3.6644163106199160E-006   5.0480464745246111E-006  0.72590779999999988     
 chl2c          69  0.45524039531666399        2.1732330561541505E-002  0.45524217500000003        8.4161247729152094E-021   4.9003005479324359E-016
 chl          69   2.2980746726394761E-006   5.0480464745246111E-006  0.45524039531666399     
 chl2c          70  0.48684479157199301        3.2658010878182209E-002  0.48694062500000002        6.2674998014429593E-021   7.7520014779296811E-018
 chl          70   2.4576151337356686E-006   5.0480464745246111E-006  0.48684479157199301     
 chl2c          71  0.23986107499999107        4.3481058864416305E-002  0.23986107500000001        2.7227968754624774E-021   8.7325717659237391E-009
 chl          71   1.2108298540293882E-006   5.0480464745246111E-006  0.23986107499999107     
 chl2c          72  0.62790273374549255        3.7549776402781669E-002  0.62790522500000001        8.4161247729152094E-021   6.6596367803232966E-016
 chl          72   3.1696821814282992E-006   5.0480464745246111E-006  0.62790273374549255     
 chl2c          73  0.35298576906409501        3.1852614277819484E-002  0.35362212500000001        6.2674998014429593E-021   6.1469666945000388E-019
 chl          73   1.7818885670813634E-006   5.0480464745246111E-006  0.35298576906409501     
 chl2c          74  0.64719589999999994        3.7616827685877569E-002  0.64719590000000005        8.4161247729152094E-021   1.3611445678130694E-005
 chl          74   3.2670749813217825E-006   5.0480464745246111E-006  0.64719589999999994     
 chl2c          75  0.71553888980788216        3.7826830779512356E-002  0.71554212500000003        8.4161247729152094E-021   6.6596367803232966E-016
 chl          75   3.6120735700799338E-006   5.0480464745246111E-006  0.71553888980788216     
 chl2c          76  0.55513977499999978        3.7257729557919804E-002  0.55513977500000000        8.4161247729152094E-021   5.3731970397311423E-006
 chl          76   2.8023713840571349E-006   5.0480464745246111E-006  0.55513977499999978     
 chl2c          77  0.52973029999999988        3.7138172437479272E-002  0.52973029999999999        8.4161247729152094E-021   1.3045399455932268E-005
 chl          77   2.6741031733638641E-006   5.0480464745246111E-006  0.52973029999999988     
 chl2c          78  0.45114028944082263        4.7515248899399322E-002  0.45117492500000000        2.7227968754624774E-021   8.0005457500020279E-018
 chl          78   2.2773771476277575E-006   5.0480464745246111E-006  0.45114028944082263     
 prod   2.2232198725233051E-009   2.5929003802005795E-014   10.000000000000000     
 dcdom   1.2402346409051087E-012  -3.3248107300387765E-011
 chl2c           1  0.60826437499999997        3.7477407714772232E-002  0.60826437499999997        1.9458137457813969E-021   1.1275026040697122E-005
 chl           1   4.3887214353474270E-007   7.2151544882887925E-007  0.60826437499999997     
 chl2c           2  0.48245612584289943        3.2640259920490348E-002  0.48302390000000001        1.4181559036186814E-021   2.9103472190223645E-019
 chl           2   3.4809954817778184E-007   7.2151544882887925E-007  0.48245612584289943     
 chl2c           3  0.75128611634676001        3.7922212503796585E-002  0.75128689999999998        1.9458137457813969E-021   7.0074259536802378E-016
 chl           3   5.4206453943483810E-007   7.2151544882887925E-007  0.75128611634676001     
 chl2c           4  0.77318742499999993        3.7976509103863923E-002  0.77318742499999993        1.9458137457813969E-021   1.0885269311807128E-005
 chl           4   5.5786667197772039E-007   7.2151544882887925E-007  0.77318742499999993     
 chl2c           5  0.48489529179087731        2.5710500362372445E-002  0.48489679999999996        6.5191536714496897E-021   5.0815586769190275E-016
 chl           5   3.4985944409150521E-007   7.2151544882887925E-007  0.48489529179087731     
 chl2c           6  0.29222854999999692        3.1261039902252048E-002  0.29222855000000003        1.4181559036186814E-021   1.9548499308018324E-008
 chl           6   2.1084741341386038E-007   7.2151544882887925E-007  0.29222854999999692     
 chl2c           7  0.22770739999998510        4.3064391842467263E-002  0.22770740000000000        6.0492114080277838E-022   1.0515029573812246E-009
 chl           7   1.6429440691264639E-007   7.2151544882887925E-007  0.22770739999998510     
 chl2c           8  0.49578364999998475        4.7969800906495587E-002  0.49578364999999996        6.0492114080277838E-022   4.8840070207048401E-009
 chl           8   3.5771556275175900E-007   7.2151544882887925E-007  0.49578364999998475     
 chl2c           9  0.28700202499999994        2.4803669054600401E-002  0.28700202499999999        6.5191536714496897E-021   7.8494863795865210E-006
 chl           9   2.0707639488267217E-007   7.2151544882887925E-007  0.28700202499999994     
 chl2c          10  0.39094565999418590        2.5387016219684602E-002  0.39094662499999999        6.5191536714496897E-021   5.1625605383518273E-016
 chl          10   2.8207333333840745E-007   7.2151544882887925E-007  0.39094565999418590     
 chl2c          11  0.49737528497496536        2.1820572217820047E-002  0.49737575000000001        1.9458137457813969E-021   5.1756362458564993E-016
 chl          11   3.5886395197510386E-007   7.2151544882887925E-007  0.49737528497496536     
 chl2c          12  0.30759362052312128        4.5290941298723353E-002  0.30768942500000002        6.0492114080277838E-022   2.9879467761228808E-019
 chl          12   2.2193354916863983E-007   7.2151544882887925E-007  0.30759362052312128     
 chl2c          13  0.75666274999999972        3.7935816987997487E-002  0.75666275000000005        1.9458137457813969E-021   1.3749530556409988E-006
 chl          13   5.4594386367834381E-007   7.2151544882887925E-007  0.75666274999999972     
 chl2c          14  0.39802929502316403        4.6856526101924839E-002  0.39804095000000000        6.0492114080277838E-022   4.1114985707885543E-018
 chl          14   2.8718428544568061E-007   7.2151544882887925E-007  0.39802929502316403     
 chl2c          15  0.25607250261663578        2.0954299823745293E-002  0.25607262500000000        1.9458137457813969E-021   5.2128470600305982E-016
 chl          15   1.8476026665817632E-007   7.2151544882887925E-007  0.25607250261663578     
 chl2c          16  0.71433214999999983        3.7823443882273475E-002  0.71433214999999994        1.9458137457813969E-021   4.6659489091600629E-006
 chl          16   5.1540168182014815E-007   7.2151544882887925E-007  0.71433214999999983     
 chl2c          17  0.62580805625480673        3.7542254757581245E-002  0.62580860000000005        1.9458137457813969E-021   7.0074259536802378E-016
 chl          17   4.5153018058941538E-007   7.2151544882887925E-007  0.62580805625480673     
 chl2c          18  0.47925805781312786        2.5694475239060960E-002  0.47925950000000000        6.5191536714496897E-021   5.1913443663567913E-016
 chl          18   3.4579209268789588E-007   7.2151544882887925E-007  0.47925805781312786     
 chl2c          19  0.63367130000000005        3.7570220750293731E-002  0.63367130000000005        1.9458137457813969E-021   1.1279315910164971E-005
 chl          19   4.5720363242947941E-007   7.2151544882887925E-007  0.63367130000000005     
 chl2c          20  0.50678173406113358        3.7020645196759419E-002  0.50678202500000002        1.9458137457813969E-021   8.5883885598768075E-016
 chl          20   3.6565085030939653E-007   7.2151544882887925E-007  0.50678173406113358     
 chl2c          21  0.71973185000000006        3.7838475073783531E-002  0.71973185000000006        1.9458137457813969E-021   1.3796144755585775E-005
 chl          21   5.1929764878918969E-007   7.2151544882887925E-007  0.71973185000000006     
 chl2c          22  0.64616892500000001        3.7613353106285476E-002  0.64616892500000001        1.9458137457813969E-021   8.0890770567573084E-006
 chl          22   4.6622086194064941E-007   7.2151544882887925E-007  0.64616892500000001     
 chl2c          23  0.41564179999996775        3.2286562315070731E-002  0.41564179999999995        1.4181559036186814E-021   3.7981888115678290E-009
 chl          23   2.9989197987901998E-007   7.2151544882887925E-007  0.41564179999996775     
 chl2c          24  0.57597453876467297        3.7348402796863071E-002  0.57597492500000003        1.9458137457813969E-021   8.3565331391763055E-016
 chl          24   4.1557452785079972E-007   7.2151544882887925E-007  0.57597453876467297     
 chl2c          25  0.31406487499998892        4.5426679235459781E-002  0.31406487500000002        6.0492114080277838E-022   2.6883276848892966E-009
 chl          25   2.2660265924700287E-007   7.2151544882887925E-007  0.31406487499998892     
 chl2c          26  0.49402016540921867        4.7955660680174553E-002  0.49427735000000000        6.0492114080277838E-022   2.8717009306757986E-019
 chl          26   3.5644318137574956E-007   7.2151544882887925E-007  0.49402016540921867     
 chl2c          27  0.30964018516732444        4.5333133499525620E-002  0.30964730000000001        6.0492114080277838E-022   4.0759485363912693E-018
 chl          27   2.2341017717645938E-007   7.2151544882887925E-007  0.30964018516732444     
 chl2c          28  0.28774892997075874        3.1209236063453518E-002  0.28776342500000002        1.4181559036186814E-021   4.0506451289606707E-018
 chl          28   2.0761529835788174E-007   7.2151544882887925E-007  0.28774892997075874     
 chl2c          29  0.68676243827466921        3.7743217595736761E-002  0.68676297499999994        1.9458137457813969E-021   8.5493399466609050E-016
 chl          29   4.9550970889056347E-007   7.2151544882887925E-007  0.68676243827466921     
 chl2c          30  0.38930182918364181        2.5380056985171612E-002  0.38930277499999999        6.5191536714496897E-021   5.2231000573893962E-016
 chl          30   2.8088728401333899E-007   7.2151544882887925E-007  0.38930182918364181     
 chl2c          31  0.63559339416304561        3.7576959810037038E-002  0.63559385000000002        1.9458137457813969E-021   8.6222537992098755E-016
 chl          31   4.5859045306222064E-007   7.2151544882887925E-007  0.63559339416304561     
 chl2c          32  0.24722667499999995        2.0893126428578448E-002  0.24722667500000001        1.9458137457813969E-021   1.0925477492485925E-006
 chl          32   1.7837786537509642E-007   7.2151544882887925E-007  0.24722667499999995     
 chl2c          33  0.60343137499999999        3.7458922634011876E-002  0.60343137499999999        1.9458137457813969E-021   1.3442981506761636E-005
 chl          33   4.3538505937055273E-007   7.2151544882887925E-007  0.60343137499999999     
 chl2c          34  0.38240925992584740        2.5350269098008315E-002  0.38241020000000003        6.5191536714496897E-021   5.0705722884697724E-016
 chl          34   2.7591418881171732E-007   7.2151544882887925E-007  0.38240925992584740     
 chl2c          35  0.49574487878239698        2.5740370148566064E-002  0.49574644999999995        6.5191536714496897E-021   5.0985036694772787E-016
 chl          35   3.5768758871929949E-007   7.2151544882887925E-007  0.49574487878239698     
 chl2c          36  0.69587270268504042        3.7770393924465726E-002  0.69587337500000002        1.9458137457813969E-021   7.0074259536802378E-016
 chl          36   5.0208290540556219E-007   7.2151544882887925E-007  0.69587270268504042     
 chl2c          37  0.33194038808228704        2.1353674699533250E-002  0.33194060000000003        1.9458137457813969E-021   5.0585318069896995E-016
 chl          37   2.3950011809162371E-007   7.2151544882887925E-007  0.33194038808228704     
 chl2c          38  0.38455694989224504        2.1543295686358745E-002  0.38455722500000000        1.9458137457813969E-021   5.2298601821875747E-016
 chl          38   2.7746378030176803E-007   7.2151544882887925E-007  0.38455694989224504     
 chl2c          39  0.47090977200491918        2.5670077108751441E-002  0.47091117500000002        6.5191536714496897E-021   5.1520702232842659E-016
 chl          39   3.3976867550603447E-007   7.2151544882887925E-007  0.47090977200491918     
 chl2c          40  0.66875547499999988        3.7687445774703773E-002  0.66875547499999999        1.9458137457813969E-021   4.6377129706586078E-006
 chl          40   4.8251740670139524E-007   7.2151544882887925E-007  0.66875547499999988     
 chl2c          41  0.44304987499999987        2.5582381488167241E-002  0.44304987499999998        6.5191536714496897E-021   6.1790270781259282E-006
 chl          41   3.1966732941420377E-007   7.2151544882887925E-007  0.44304987499999987     
 chl2c          42  0.76234377499999995        3.7949995630725070E-002  0.76234377499999995        1.9458137457813969E-021   7.1851823078519844E-006
 chl          42   5.5004281098102710E-007   7.2151544882887925E-007  0.76234377499999995     
 chl2c          43  0.29539925000000000        2.1185090152268007E-002  0.29539925000000000        1.9458137457813969E-021   8.4659936498380943E-006
 chl          43   2.1313512244746432E-007   7.2151544882887925E-007  0.29539925000000000     
 chl2c          44  0.62417217211583920        3.7536352708156646E-002  0.62417262500000004        1.9458137457813969E-021   8.3693794672688557E-016
 chl          44   4.5034986491065618E-007   7.2151544882887925E-007  0.62417217211583920     
 chl2c          45  0.37651038196646175        4.6544927192009838E-002  0.37662252499999999        6.0492114080277838E-022   3.8245444580660859E-019
 chl          45   2.7165805723326443E-007   7.2151544882887925E-007  0.37651038196646175     
 chl2c          46  0.51876004631090233        3.7083195475449568E-002  0.51876034999999998        1.9458137457813969E-021   8.6213517602141831E-016
 chl          46   3.7429338764850087E-007   7.2151544882887925E-007  0.51876004631090233     
 chl2c          47  0.61962239246796058        3.7519784612651236E-002  0.61962282499999999        1.9458137457813969E-021   8.6358979220274847E-016
 chl          47   4.4706712860594456E-007   7.2151544882887925E-007  0.61962239246796058     
 chl2c          48  0.71424949999999987        3.7823212136301673E-002  0.71424949999999998        1.9458137457813969E-021   3.8784120285368783E-006
 chl          48   5.1534204856830249E-007   7.2151544882887925E-007  0.71424949999999987     
 chl2c          49  0.53276087592435850        3.7152990741888416E-002  0.53276120000000005        1.9458137457813969E-021   8.5209848795435939E-016
 chl          49   3.8439520251103037E-007   7.2151544882887925E-007  0.53276087592435850     
 chl2c          50  0.38132569999999999        2.1533072915600981E-002  0.38132569999999999        1.9458137457813969E-021   4.8163594756999929E-006
 chl          50   2.7513238358548656E-007   7.2151544882887925E-007  0.38132569999999999     
 chl2c          51  0.22275910802979740        2.0700971146093840E-002  0.22275920000000002        1.9458137457813969E-021   5.2492257166461887E-016
 chl          51   1.6072413781084007E-007   7.2151544882887925E-007  0.22275910802979740     
 chl2c          52  0.63698869999999985        3.7581825176985564E-002  0.63698869999999996        1.9458137457813969E-021   2.4234319722643500E-006
 chl          52   4.5959718777942423E-007   7.2151544882887925E-007  0.63698869999999985     
 chl2c          53  0.75269794999999995        3.7925801262726190E-002  0.75269794999999995        1.9458137457813969E-021   6.8604729700892457E-006
 chl          53   5.4308319922682724E-007   7.2151544882887925E-007  0.75269794999999995     
 chl2c          54  0.51861093727615470        3.7082433371327092E-002  0.51861124999999997        1.9458137457813969E-021   8.3674645074062372E-016
 chl          54   3.7418580317637048E-007   7.2151544882887925E-007  0.51861093727615470     
 chl2c          55  0.57808280000000001        3.7357235588660491E-002  0.57808280000000001        1.9458137457813969E-021   9.0509900697276620E-006
 chl          55   4.1709567090225522E-007   7.2151544882887925E-007  0.57808280000000001     
 chl2c          56  0.61626027271979289        3.7507394187257688E-002  0.61626080000000005        1.9458137457813969E-021   7.0074259536802378E-016
 chl          56   4.4464130726682890E-007   7.2151544882887925E-007  0.61626027271979289     
 chl2c          57  0.68163410473508357        3.7727617852646313E-002  0.68163462500000005        1.9458137457813969E-021   8.6885976323210150E-016
 chl          57   4.9180953701500516E-007   7.2151544882887925E-007  0.68163410473508357     
 chl2c          58  0.69416802499999997        3.7765358178394853E-002  0.69416802499999997        1.9458137457813969E-021   1.1334347279488746E-005
 chl          58   5.0085295412053169E-007   7.2151544882887925E-007  0.69416802499999997     
 chl2c          59  0.53705127500000005        3.7173699120809672E-002  0.53705127500000005        1.9458137457813969E-021   1.3954920459379546E-005
 chl          59   3.8749079172574688E-007   7.2151544882887925E-007  0.53705127500000005     
 chl2c          60  0.64452155000000000        3.7607757740906807E-002  0.64452155000000000        1.9458137457813969E-021   1.3490993980833341E-005
 chl          60   4.6503225542813492E-007   7.2151544882887925E-007  0.64452155000000000     
 chl2c          61  0.70794083069880254        3.7805373434125003E-002  0.70794139999999994        1.9458137457813969E-021   8.5649226587841439E-016
 chl          61   5.1079024620593618E-007   7.2151544882887925E-007  0.70794083069880254     
 chl2c          62  0.76481592499999973        3.7956103087269030E-002  0.76481592499999995        1.9458137457813969E-021   4.0643863917617493E-006
 chl          62   5.5182650539784922E-007   7.2151544882887925E-007  0.76481592499999973     
 chl2c          63  0.72597904999999996        3.7855601011927406E-002  0.72597904999999996        1.9458137457813969E-021   1.0885490093687201E-005
 chl          63   5.2380510010111333E-007   7.2151544882887925E-007  0.72597904999999996     
 chl2c          64  0.48435586844590239        2.5708982294816416E-002  0.48435739999999999        6.5191536714496897E-021   4.9929749424968984E-016
 chl          64   3.4947024181464685E-007   7.2151544882887925E-007  0.48435586844590239     
 chl2c          65  0.76379975000000000        3.7953597170552002E-002  0.76379975000000000        1.9458137457813969E-021   1.1209525893565014E-005
 chl          65   5.5109331943663576E-007   7.2151544882887925E-007  0.76379975000000000     
 chl2c          66  0.35185271222591163        3.1840477731474713E-002  0.35213202499999996        1.4181559036186814E-021   3.1453545767979764E-019
 chl          66   2.5386716758333711E-007   7.2151544882887925E-007  0.35185271222591163     
 chl2c          67  0.75736694459587273        3.7937587124568600E-002  0.75736760000000003        1.9458137457813969E-021   8.5148140483487182E-016
 chl          67   5.4645195095824801E-007   7.2151544882887925E-007  0.75736694459587273     
 chl2c          68  0.72590779999999999        3.7855407263856986E-002  0.72590779999999999        1.9458137457813969E-021   1.1344396742333117E-005
 chl          68   5.2375369212538429E-007   7.2151544882887925E-007  0.72590779999999999     
 chl2c          69  0.45524177840981567        2.1732330561541505E-002  0.45524217500000003        1.9458137457813969E-021   5.0840979731422991E-016
 chl          69   3.2846397607501534E-007   7.2151544882887925E-007  0.45524177840981567     
 chl2c          70  0.48690704706432697        3.2658010878182209E-002  0.48694062500000002        1.4181559036186814E-021   5.0068209157852557E-018
 chl          70   3.5131095660056210E-007   7.2151544882887925E-007  0.48690704706432697     
 chl2c          71  0.23986107499999693        4.3481058864416305E-002  0.23986107500000001        6.0492114080277838E-022   5.6268567330988624E-009
 chl          71   1.7306347118520024E-007   7.2151544882887925E-007  0.23986107499999693     
 chl2c          72  0.62790522499999968        3.7549776402781669E-002  0.62790522500000001        1.9458137457813969E-021   1.1432208060576078E-006
 chl          72   4.5304332023787317E-007   7.2151544882887925E-007  0.62790522499999968     
 chl2c          73  0.35339778216960177        3.1852614277819484E-002  0.35362212500000001        1.4181559036186814E-021   3.9498903168359792E-019
 chl          73   2.5498195941723073E-007   7.2151544882887925E-007  0.35339778216960177     
 chl2c          74  0.64719590000000005        3.7616827685877569E-002  0.64719590000000005        1.9458137457813969E-021   1.3850914152604917E-005
 chl          74   4.6696184026871051E-007   7.2151544882887925E-007  0.64719590000000005     
 chl2c          75  0.71554141414219641        3.7826830779512356E-002  0.71554212500000003        1.9458137457813969E-021   7.0074259536802378E-016
 chl          75   5.1627418458045780E-007   7.2151544882887925E-007  0.71554141414219641     
 chl2c          76  0.55513977499999989        3.7257729557919804E-002  0.55513977500000000        1.9458137457813969E-021   3.3572385416526238E-006
 chl          76   4.0054192392188795E-007   7.2151544882887925E-007  0.55513977499999989     
 chl2c          77  0.52973029999999999        3.7138172437479272E-002  0.52973029999999999        1.9458137457813969E-021   1.3444876699977911E-005
 chl          77   3.8220859516275687E-007   7.2151544882887925E-007  0.52973029999999999     
 chl2c          78  0.45116301205563158        4.7515248899399322E-002  0.45117492500000000        6.0492114080277838E-022   5.1680665248646874E-018
 chl          78   3.2552108313830807E-007   7.2151544882887925E-007  0.45116301205563158     
 prod   1.4280167677681562E-009   5.7846917582795837E-015   10.000000000000000     
 dcdom   1.2416525449466395E-012  -1.2215002318613984E-011
 chl2c           1  0.60826437499999997        3.7477407714772232E-002  0.60826437499999997        4.2869781905047319E-022   1.1358410023424134E-005
 chl           1   3.9491384788687558E-011   6.4924704473589395E-011  0.60826437499999997     
 chl2c           2  0.48288235541517976        3.2640259920490348E-002  0.48302390000000001        3.0695676424116895E-022   2.5290878212620045E-019
 chl           2   3.1350994220841306E-011   6.4924704473589395E-011  0.48288235541517976     
 chl2c           3  0.75128673566350701        3.7922212503796585E-002  0.75128689999999998        4.2869781905047319E-022   7.3620506531900153E-016
 chl           3   4.8777069287880864E-011   6.4924704473589395E-011  0.75128673566350701     
 chl2c           4  0.77318742499999993        3.7976509103863923E-002  0.77318742499999993        4.2869781905047319E-022   1.0026887865611649E-005
 chl           4   5.0198965070820563E-011   6.4924704473589395E-011  0.77318742499999993     
 chl2c           5  0.48489646875230441        2.5710500362372445E-002  0.48489679999999996        1.4664678892180757E-021   5.2046081322321430E-016
 chl           5   3.1481759934030439E-011   6.4924704473589395E-011  0.48489646875230441     
 chl2c           6  0.29222854999999970        3.1261039902252048E-002  0.29222855000000003        3.0695676424116895E-022   3.9384370481194920E-008
 chl           6   1.8972852247495524E-011   6.4924704473589395E-011  0.29222854999999970     
 chl2c           7  0.22769384390726163        4.3064391842467263E-002  0.22770740000000000        1.2905024328802123E-022   2.4678725881680533E-019
 chl           7   1.4782955526134555E-011   6.4924704473589395E-011  0.22769384390726163     
 chl2c           8  0.49578364999999602        4.7969800906495587E-002  0.49578364999999996        1.2905024328802123E-022   3.9976230890777768E-009
 chl           8   3.2188606959087218E-011   6.4924704473589395E-011  0.49578364999999602     
 chl2c           9  0.28700202499999999        2.4803669054600401E-002  0.28700202499999999        1.4664678892180757E-021   6.4288761937238294E-006
 chl           9   1.8633521656446716E-011   6.4924704473589395E-011  0.28700202499999999     
 chl2c          10  0.39094641209125186        2.5387016219684602E-002  0.39094662499999999        1.4664678892180757E-021   5.2636106352446589E-016
 chl          10   2.5382080270034622E-011   6.4924704473589395E-011  0.39094641209125186     
 chl2c          11  0.49737564943996948        2.1820572217820047E-002  0.49737575000000001        4.2869781905047319E-022   5.2730878705681351E-016
 chl          11   3.2291967052249617E-011   6.4924704473589395E-011  0.49737564943996948     
 chl2c          12  0.30766590008824168        4.5290941298723353E-002  0.30768942500000002        1.2905024328802123E-022   2.5965265237798194E-019
 chl          12   1.9975117639829972E-011   6.4924704473589395E-011  0.30766590008824168     
 chl2c          13  0.75666275000000005        3.7935816987997487E-002  0.75666275000000005        4.2869781905047319E-022   4.3692939826487953E-006
 chl          13   4.9126105429923456E-011   6.4924704473589395E-011  0.75666275000000005     
 chl2c          14  0.39803809359412995        4.6856526101924839E-002  0.39804095000000000        1.2905024328802123E-022   3.5789967717755011E-018
 chl          14   2.5842505595829801E-011   6.4924704473589395E-011  0.39803809359412995     
 chl2c          15  0.25607259848005687        2.0954299823745293E-002  0.25607262500000000        4.2869781905047319E-022   5.2999887998887237E-016
 chl          15   1.6625437780101810E-011   6.4924704473589395E-011  0.25607259848005687     
 chl2c          16  0.71433214999999994        3.7823443882273475E-002  0.71433214999999994        4.2869781905047319E-022   7.2503734229209963E-006
 chl          16   4.6377803734733729E-011   6.4924704473589395E-011  0.71433214999999994     
 chl2c          17  0.62580848597358985        3.7542254757581245E-002  0.62580860000000005        4.2869781905047319E-022   7.3620506531900153E-016
 chl          17   4.0630431008899736E-011   6.4924704473589395E-011  0.62580848597358985     
 chl2c          18  0.47925918129899542        2.5694475239060960E-002  0.47925950000000000        1.4664678892180757E-021   5.2844561877707079E-016
 chl          18   3.1115760712091678E-011   6.4924704473589395E-011  0.47925918129899542     
 chl2c          19  0.63367130000000005        3.7570220750293731E-002  0.63367130000000005        4.2869781905047319E-022   1.1015785534302260E-005
 chl          19   4.1140921885895212E-011   6.4924704473589395E-011  0.63367130000000005     
 chl2c          20  0.50678202500000002        3.7020645196759419E-002  0.50678202500000002        4.2869781905047319E-022   1.8304555311039075E-006
 chl          20   3.2902673205652192E-011   6.4924704473589395E-011  0.50678202500000002     
 chl2c          21  0.71973185000000006        3.7838475073783531E-002  0.71973185000000006        4.2869781905047319E-022   1.3608489589145986E-005
 chl          21   4.6728377661479776E-011   6.4924704473589395E-011  0.71973185000000006     
 chl2c          22  0.64616892500000001        3.7613353106285476E-002  0.64616892500000001        4.2869781905047319E-022   5.6277115306258960E-006
 chl          22   4.1952326495641951E-011   6.4924704473589395E-011  0.64616892500000001     
 chl2c          23  0.41564179999999412        3.2286562315070731E-002  0.41564179999999995        3.0695676424116895E-022   4.5442996409547060E-009
 chl          23   2.6985421031870366E-011   6.4924704473589395E-011  0.41564179999999412     
 chl2c          24  0.57597484334980731        3.7348402796863071E-002  0.57597492500000003        4.2869781905047319E-022   8.7090574676246087E-016
 chl          24   3.7394996488708188E-011   6.4924704473589395E-011  0.57597484334980731     
 chl2c          25  0.31406487499999813        4.5426679235459781E-002  0.31406487500000002        1.2905024328802123E-022   3.3510581851422075E-009
 chl          25   2.0390569194909672E-011   6.4924704473589395E-011  0.31406487499999813     
 chl2c          26  0.49421418785998555        4.7955660680174553E-002  0.49427735000000000        1.2905024328802123E-022   2.4955019551097644E-019
 chl          26   3.2086710093464556E-011   6.4924704473589395E-011  0.49421418785998555     
 chl2c          27  0.30964555628998203        4.5333133499525620E-002  0.30964730000000001        1.2905024328802123E-022   3.5480253867852796E-018
 chl          27   2.0103646233687271E-011   6.4924704473589395E-011  0.30964555628998203     
 chl2c          28  0.28775982060009936        3.1209236063453518E-002  0.28776342500000002        3.0695676424116895E-022   3.5259811917020465E-018
 chl          28   1.8682721311834552E-011   6.4924704473589395E-011  0.28775982060009936     
 chl2c          29  0.68676286082004812        3.7743217595736761E-002  0.68676297499999994        4.2869781905047319E-022   8.8541137630659443E-016
 chl          29   4.4587875782178426E-011   6.4924704473589395E-011  0.68676286082004812     
 chl2c          30  0.38930256561919474        2.5380056985171612E-002  0.38930277499999999        1.4664678892180757E-021   5.3073833988479507E-016
 chl          30   2.5275354023636362E-011   6.4924704473589395E-011  0.38930256561919474     
 chl2c          31  0.63559375279783759        3.7576959810037038E-002  0.63559385000000002        4.2869781905047319E-022   8.9085015102398449E-016
 chl          31   4.1265736565659239E-011   6.4924704473589395E-011  0.63559375279783759     
 chl2c          32  0.24722665033278216        2.0893126428578448E-002  0.24722667500000001        4.2869781905047319E-022   5.3111885814387256E-016
 chl          32   1.6051117210851302E-011   6.4924704473589395E-011  0.24722665033278216     
 chl2c          33  0.60343137499999999        3.7458922634011876E-002  0.60343137499999999        4.2869781905047319E-022   1.2812793878016761E-005
 chl          33   3.9177603691966697E-011   6.4924704473589395E-011  0.60343137499999999     
 chl2c          34  0.38240999365933714        2.5350269098008315E-002  0.38241020000000003        1.4664678892180757E-021   5.1965659314683988E-016
 chl          34   2.4827855826079657E-011   6.4924704473589395E-011  0.38240999365933714     
 chl2c          35  0.49574610458499385        2.5740370148566064E-002  0.49574644999999995        1.4664678892180757E-021   5.2169933658451489E-016
 chl          35   3.2186169334113868E-011   6.4924704473589395E-011  0.49574610458499385     
 chl2c          36  0.69587323401177936        3.7770393924465726E-002  0.69587337500000002        4.2869781905047319E-022   7.3620506531900153E-016
 chl          36   4.5179364069295693E-011   6.4924704473589395E-011  0.69587323401177936     
 chl2c          37  0.33194055447356158        2.1353674699533250E-002  0.33194060000000003        4.2869781905047319E-022   5.1877410693775684E-016
 chl          37   2.1551142401995389E-011   6.4924704473589395E-011  0.33194055447356158     
 chl2c          38  0.38455716532887008        2.1543295686358745E-002  0.38455722500000000        4.2869781905047319E-022   5.3122548269756674E-016
 chl          38   2.4967260312178148E-011   6.4924704473589395E-011  0.38455716532887008     
 chl2c          39  0.47091086563934176        2.5670077108751441E-002  0.47091117500000002        1.4664678892180757E-021   5.2559979469150651E-016
 chl          39   3.0573748785036429E-011   6.4924704473589395E-011  0.47091086563934176     
 chl2c          40  0.66875547499999999        3.7687445774703773E-002  0.66875547499999999        4.2869781905047319E-022   7.2259796151202154E-006
 chl          40   4.3418751579469901E-011   6.4924704473589395E-011  0.66875547499999999     
 chl2c          41  0.44304987499999998        2.5582381488167241E-002  0.44304987499999998        1.4664678892180757E-021   7.3493230701660050E-006
 chl          41   2.8764882201435721E-011   6.4924704473589395E-011  0.44304987499999998     
 chl2c          42  0.76234377499999995        3.7949995630725070E-002  0.76234377499999995        4.2869781905047319E-022   9.9255784772578225E-006
 chl          42   4.9494944299155522E-011   6.4924704473589395E-011  0.76234377499999995     
 chl2c          43  0.29539925000000000        2.1185090152268007E-002  0.29539925000000000        4.2869781905047319E-022   8.1837455813957128E-006
 chl          43   1.9178709007969953E-011   6.4924704473589395E-011  0.29539925000000000     
 chl2c          44  0.62417262499999993        3.7536352708156646E-002  0.62417262500000004        4.2869781905047319E-022   8.6149635991241262E-007
 chl          44   4.0524223218629530E-011   6.4924704473589395E-011  0.62417262499999993     
 chl2c          45  0.37659498896537164        4.6544927192009838E-002  0.37662252499999999        1.2905024328802123E-022   3.3235962512015716E-019
 chl          45   2.4450318364811413E-011   6.4924704473589395E-011  0.37659498896537164     
 chl2c          46  0.51876028524357820        3.7083195475449568E-002  0.51876034999999998        4.2869781905047319E-022   8.9078302151987967E-016
 chl          46   3.3680358212074252E-011   6.4924704473589395E-011  0.51876028524357820     
 chl2c          47  0.61962273272652568        3.7519784612651236E-002  0.61962282499999999        4.2869781905047319E-022   8.9186507075647337E-016
 chl          47   4.0228822807387549E-011   6.4924704473589395E-011  0.61962273272652568     
 chl2c          48  0.71424949999999998        3.7823212136301673E-002  0.71424949999999998        4.2869781905047319E-022   7.0804750446599097E-006
 chl          48   4.6372437707908989E-011   6.4924704473589395E-011  0.71424949999999998     
 chl2c          49  0.53276113112154988        3.7152990741888416E-002  0.53276120000000005        4.2869781905047319E-022   8.8328942941748450E-016
 chl          49   3.4589358993081835E-011   6.4924704473589395E-011  0.53276113112154988     
 chl2c          50  0.38132569999999999        2.1533072915600981E-002  0.38132569999999999        4.2869781905047319E-022   2.0413039372116964E-006
 chl          50   2.4757458380684606E-011   6.4924704473589395E-011  0.38132569999999999     
 chl2c          51  0.22275918003010917        2.0700971146093840E-002  0.22275920000000002        4.2869781905047319E-022   5.3261923607363496E-016
 chl          51   1.4462573932233933E-011   6.4924704473589395E-011  0.22275918003010917     
 chl2c          52  0.63698869999999996        3.7581825176985564E-002  0.63698869999999996        4.2869781905047319E-022   5.1113855119494532E-006
 chl          52   4.1356303100515891E-011   6.4924704473589395E-011  0.63698869999999996     
 chl2c          53  0.75269794999999995        3.7925801262726190E-002  0.75269794999999995        4.2869781905047319E-022   8.9786070421676920E-006
 chl          53   4.8868691961626564E-011   6.4924704473589395E-011  0.75269794999999995     
 chl2c          54  0.51861118386648641        3.7082433371327092E-002  0.51861124999999997        4.2869781905047319E-022   8.7173301336368970E-016
 chl          54   3.3670677849229960E-011   6.4924704473589395E-011  0.51861118386648641     
 chl2c          55  0.57808280000000001        3.7357235588660491E-002  0.57808280000000001        4.2869781905047319E-022   5.6760235282517146E-006
 chl          55   3.7531854951265087E-011   6.4924704473589395E-011  0.57808280000000001     
 chl2c          56  0.61626068942639067        3.7507394187257688E-002  0.61626080000000005        4.2869781905047319E-022   7.3620506531900153E-016
 chl          56   4.0010543139698872E-011   6.4924704473589395E-011  0.61626068942639067     
 chl2c          57  0.68163451382051488        3.7727617852646313E-002  0.68163462500000005        4.2869781905047319E-022   8.9577685216474369E-016
 chl          57   4.4254919368795715E-011   6.4924704473589395E-011  0.68163451382051488     
 chl2c          58  0.69416802499999997        3.7765358178394853E-002  0.69416802499999997        4.2869781905047319E-022   1.1240303461232291E-005
 chl          58   4.5068653878140215E-011   6.4924704473589395E-011  0.69416802499999997     
 chl2c          59  0.53705127500000005        3.7173699120809672E-002  0.53705127500000005        4.2869781905047319E-022   1.3839846195561676E-005
 chl          59   3.4867895316539394E-011   6.4924704473589395E-011  0.53705127500000005     
 chl2c          60  0.64452155000000000        3.7607757740906807E-002  0.64452155000000000        4.2869781905047319E-022   1.3367079565624975E-005
 chl          60   4.1845371160609769E-011   6.4924704473589395E-011  0.64452155000000000     
 chl2c          61  0.70794127882865643        3.7805373434125003E-002  0.70794139999999994        4.2869781905047319E-022   8.8657585864827506E-016
 chl          61   4.5962878312605470E-011   6.4924704473589395E-011  0.70794127882865643     
 chl2c          62  0.76481592499999995        3.7956103087269030E-002  0.76481592499999995        4.2869781905047319E-022   7.2175829442776109E-006
 chl          62   4.9655447907319907E-011   6.4924704473589395E-011  0.76481592499999995     
 chl2c          63  0.72597904999999996        3.7855601011927406E-002  0.72597904999999996        4.2869781905047319E-022   1.0027358402480251E-005
 chl          63   4.7133975275267177E-011   6.4924704473589395E-011  0.72597904999999996     
 chl2c          64  0.48435706530105505        2.5708982294816416E-002  0.48435739999999999        1.4664678892180757E-021   5.1394872998425200E-016
 chl          64   3.1446739324366040E-011   6.4924704473589395E-011  0.48435706530105505     
 chl2c          65  0.76379975000000000        3.7953597170552002E-002  0.76379975000000000        4.2869781905047319E-022   1.1347730844589771E-005
 chl          65   4.9589473045751463E-011   6.4924704473589395E-011  0.76379975000000000     
 chl2c          66  0.35206241345771028        3.1840477731474713E-002  0.35213202499999996        3.0695676424116895E-022   2.7333241753136104E-019
 chl          66   2.2857548150000482E-011   6.4924704473589395E-011  0.35206241345771028     
 chl2c          67  0.75736746072955097        3.7937587124568600E-002  0.75736760000000003        4.2869781905047319E-022   8.8282712250830603E-016
 chl          67   4.9171858565778921E-011   6.4924704473589395E-011  0.75736746072955097     
 chl2c          68  0.72590779999999999        3.7855407263856986E-002  0.72590779999999999        4.2869781905047319E-022   1.1312218013025660E-005
 chl          68   4.7129349390073434E-011   6.4924704473589395E-011  0.72590779999999999     
 chl2c          69  0.45524208967757801        2.1732330561541505E-002  0.45524217500000003        4.2869781905047319E-022   5.2064655711942137E-016
 chl          69   2.9556458136256031E-011   6.4924704473589395E-011  0.45524208967757801     
 chl2c          70  0.48693227686268636        3.2658010878182209E-002  0.48694062500000002        3.0695676424116895E-022   4.3591538854175391E-018
 chl          70   3.1613934173961922E-011   6.4924704473589395E-011  0.48693227686268636     
 chl2c          71  0.23986107499999920        4.3481058864416305E-002  0.23986107500000001        1.2905024328802123E-022   4.7157880316414800E-009
 chl          71   1.5572909409092408E-011   6.4924704473589395E-011  0.23986107499999920     
 chl2c          72  0.62790522500000001        3.7549776402781669E-002  0.62790522500000001        4.2869781905047319E-022   3.6621623995642776E-006
 chl          72   4.0766561170547657E-011   6.4924704473589395E-011  0.62790522500000001     
 chl2c          73  0.35356622104529034        3.1852614277819484E-002  0.35362212500000001        3.0695676424116895E-022   3.4325342344557606E-019
 chl          73   2.2955182413209259E-011   6.4924704473589395E-011  0.35356622104529034     
 chl2c          74  0.64719590000000005        3.7616827685877569E-002  0.64719590000000005        4.2869781905047319E-022   1.3631267282999257E-005
 chl          74   4.2019002544018717E-011   6.4924704473589395E-011  0.64719590000000005     
 chl2c          75  0.71554197592912550        3.7826830779512356E-002  0.71554212500000003        4.2869781905047319E-022   7.3620506531900153E-016
 chl          75   4.6456351325646687E-011   6.4924704473589395E-011  0.71554197592912550     
 chl2c          76  0.55513977499999989        3.7257729557919804E-002  0.55513977500000000        4.2869781905047319E-022   7.7221157000521193E-007
 chl          76   3.6042285833409903E-011   6.4924704473589395E-011  0.55513977499999989     
 chl2c          77  0.52973029999999999        3.7138172437479272E-002  0.52973029999999999        4.2869781905047319E-022   1.3379267048801324E-005
 chl          77   3.4392583178205854E-011   6.4924704473589395E-011  0.52973029999999999     
 chl2c          78  0.45117200600419377        4.7515248899399322E-002  0.45117492500000000        1.2905024328802123E-022   4.4996886124081471E-018
 chl          78   2.9292209156578781E-011   6.4924704473589395E-011  0.45117200600419377     
 prod   1.2408587690294209E-009   1.2386335321994473E-015   10.000000000000000     
 dcdom   1.2463017795009434E-012  -6.9663670446743578E-012
 chl2c           1  0.60826437499999997        3.7477407714772232E-002  0.60826437499999997        1.0113103942645422E-022   1.1361837326922593E-005
 chl           1   3.5535850144592472E-015   5.8421718590033276E-015  0.60826437499999997     
 chl2c           2  0.48298914617138045        3.2640259920490348E-002  0.48302390000000001        7.1565588629192277E-023   2.4020253604634773E-019
 chl           2   2.8217055979664837E-015   5.8421718590033276E-015  0.48298914617138045     
 chl2c           3  0.75128686284837010        3.7922212503796585E-002  0.75128689999999998        1.0113103942645422E-022   7.6822460752959337E-016
 chl           3   4.3891469681716402E-015   5.8421718590033276E-015  0.75128686284837010     
 chl2c           4  0.77318742499999993        3.7976509103863923E-002  0.77318742499999993        1.0113103942645422E-022   8.6350854200276096E-006
 chl           4   4.5170938160702455E-015   5.8421718590033276E-015  0.77318742499999993     
 chl2c           5  0.48489672204563122        2.5710500362372445E-002  0.48489679999999996        3.4946613639957844E-022   5.2702741877613760E-016
 chl           5   2.8328499840579453E-015   5.8421718590033276E-015  0.48489672204563122     
 chl2c           6  0.29222854999999998        3.1261039902252048E-002  0.29222855000000003        7.1565588629192277E-023   5.1378877088399439E-008
 chl           6   1.7072494112073467E-015   5.8421718590033276E-015  0.29222854999999998     
 chl2c           7  0.22770409958379939        4.3064391842467263E-002  0.22770740000000000        2.9839179806111809E-023   2.3438842985074460E-019
 chl           7   1.3302864827681642E-015   5.8421718590033276E-015  0.22770409958379939     
 chl2c           8  0.49578364999999885        4.7969800906495587E-002  0.49578364999999996        2.9839179806111809E-023   3.4540485202494463E-009
 chl           8   2.8964532881839485E-015   5.8421718590033276E-015  0.49578364999999885     
 chl2c           9  0.28700202499999999        2.4803669054600401E-002  0.28700202499999999        3.4946613639957844E-022   4.3787627663723872E-006
 chl           9   1.6767151539319695E-015   5.8421718590033276E-015  0.28700202499999999     
 chl2c          10  0.39094657477393130        2.5387016219684602E-002  0.39094662499999999        3.4946613639957844E-022   5.3171730809289453E-016
 chl          10   2.2839770775180016E-015   5.8421718590033276E-015  0.39094657477393130     
 chl2c          11  0.49737572650748402        2.1820572217820047E-002  0.49737575000000001        1.0113103942645422E-022   5.3246876673856432E-016
 chl          11   2.9057544727533584E-015   5.8421718590033276E-015  0.49737572650748402     
 chl2c          12  0.30768942499999563        4.5290941298723353E-002  0.30768942500000002        2.9839179806111809E-023   3.2105913210343011E-010
 chl          12   1.7975745000478895E-015   5.8421718590033276E-015  0.30768942499999563     
 chl2c          13  0.75666275000000005        3.7935816987997487E-002  0.75666275000000005        1.0113103942645422E-022   7.0679936109783072E-006
 chl          13   4.4205538248060701E-015   5.8421718590033276E-015  0.75666275000000005     
 chl2c          14  0.39804025531125331        4.6856526101924839E-002  0.39804095000000000        2.9839179806111809E-023   3.4026820670711485E-018
 chl          14   2.3254195783299041E-015   5.8421718590033276E-015  0.39804025531125331     
 chl2c          15  0.25607261879770388        2.0954299823745293E-002  0.25607262500000000        1.0113103942645422E-022   5.3459916004063117E-016
 chl          15   1.4960202474012322E-015   5.8421718590033276E-015  0.25607261879770388     
 chl2c          16  0.71433214999999994        3.7823443882273475E-002  0.71433214999999994        1.0113103942645422E-022   9.0555541847305007E-006
 chl          16   4.1732511847113435E-015   5.8421718590033276E-015  0.71433214999999994     
 chl2c          17  0.62580857422199543        3.7542254757581245E-002  0.62580860000000005        1.0113103942645422E-022   7.6822460752959337E-016
 chl          17   3.6560812414427373E-015   5.8421718590033276E-015  0.62580857422199543     
 chl2c          18  0.47925942475315536        2.5694475239060960E-002  0.47925950000000000        3.4946613639957844E-022   5.3336953027951552E-016
 chl          18   2.7999159244550071E-015   5.8421718590033276E-015  0.47925942475315536     
 chl2c          19  0.63367130000000005        3.7570220750293731E-002  0.63367130000000005        1.0113103942645422E-022   1.0393475471201799E-005
 chl          19   3.7020166367180554E-015   5.8421718590033276E-015  0.63367130000000005     
 chl2c          20  0.50678202500000002        3.7020645196759419E-002  0.50678202500000002        1.0113103942645422E-022   4.4887286153114947E-006
 chl          20   2.9607076851037210E-015   5.8421718590033276E-015  0.50678202500000002     
 chl2c          21  0.71973185000000006        3.7838475073783531E-002  0.71973185000000006        1.0113103942645422E-022   1.3156351443235207E-005
 chl          21   4.2047971600984046E-015   5.8421718590033276E-015  0.71973185000000006     
 chl2c          22  0.64616892500000001        3.7613353106285476E-002  0.64616892500000001        1.0113103942645422E-022   3.1222775994982747E-006
 chl          22   3.7750299097974317E-015   5.8421718590033276E-015  0.64616892500000001     
 chl2c          23  0.41564179999999867        3.2286562315070731E-002  0.41564179999999995        7.1565588629192277E-023   4.7590049181152758E-009
 chl          23   2.4282508273854817E-015   5.8421718590033276E-015  0.41564179999999867     
 chl2c          24  0.57597490615650437        3.7348402796863071E-002  0.57597492500000003        1.0113103942645422E-022   8.9022573360258581E-016
 chl          24   3.3649443882396121E-015   5.8421718590033276E-015  0.57597490615650437     
 chl2c          25  0.31406487499999958        4.5426679235459781E-002  0.31406487500000002        2.9839179806111809E-023   3.5763546514896706E-009
 chl          25   1.8348209746263954E-015   5.8421718590033276E-015  0.31406487499999958     
 chl2c          26  0.49426197152280266        4.7955660680174553E-002  0.49427735000000000        2.9839179806111809E-023   2.3701261367221829E-019
 chl          26   2.8875633810060218E-015   5.8421718590033276E-015  0.49426197152280266     
 chl2c          27  0.30964687592258971        4.5333133499525620E-002  0.30964730000000001        2.9839179806111809E-023   3.3732283904497019E-018
 chl          27   1.8090102647432488E-015   5.8421718590033276E-015  0.30964687592258971     
 chl2c          28  0.28776254109452376        3.1209236063453518E-002  0.28776342500000002        7.1565588629192277E-023   3.3522645252301798E-018
 chl          28   1.6811582196577152E-015   5.8421718590033276E-015  0.28776254109452376     
 chl2c          29  0.68676294855861642        3.7743217595736761E-002  0.68676297499999994        1.0113103942645422E-022   9.0195325175651753E-016
 chl          29   4.0121871718752990E-015   5.8421718590033276E-015  0.68676294855861642     
 chl2c          30  0.38930272551804795        2.5380056985171612E-002  0.38930277499999999        3.4946613639957844E-022   5.3518412500040439E-016
 chl          30   2.2743734276548365E-015   5.8421718590033276E-015  0.38930272551804795     
 chl2c          31  0.63559382746137560        3.7576959810037038E-002  0.63559385000000002        1.0113103942645422E-022   9.0633014755528717E-016
 chl          31   3.7132483725510646E-015   5.8421718590033276E-015  0.63559382746137560     
 chl2c          32  0.24722666922837935        2.0893126428578448E-002  0.24722667500000001        1.0113103942645422E-022   5.3548503942217561E-016
 chl          32   1.4443406897611617E-015   5.8421718590033276E-015  0.24722666922837935     
 chl2c          33  0.60343137499999999        3.7458922634011876E-002  0.60343137499999999        1.0113103942645422E-022   1.1548357978371115E-005
 chl          33   3.5253497978646841E-015   5.8421718590033276E-015  0.60343137499999999     
 chl2c          34  0.38241015145671348        2.5350269098008315E-002  0.38241020000000003        3.4946613639957844E-022   5.2638657838813470E-016
 chl          34   2.2341058254376118E-015   5.8421718590033276E-015  0.38241015145671348     
 chl2c          35  0.49574636867029936        2.5740370148566064E-002  0.49574644999999995        3.4946613639957844E-022   5.2801356998895863E-016
 chl          35   2.8962354842487117E-015   5.8421718590033276E-015  0.49574636867029936     
 chl2c          36  0.69587334312672566        3.7770393924465726E-002  0.69587337500000002        1.0113103942645422E-022   7.6822460752959337E-016
 chl          36   4.0654116626455236E-015   5.8421718590033276E-015  0.69587334312672566     
 chl2c          37  0.33194058940133064        2.1353674699533250E-002  0.33194060000000003        1.0113103942645422E-022   5.2568291925031655E-016
 chl          37   1.9392539702614322E-015   5.8421718590033276E-015  0.33194058940133064     
 chl2c          38  0.38455721103757995        2.1543295686358745E-002  0.38455722500000000        1.0113103942645422E-022   5.3556934607022004E-016
 chl          38   2.2466493165005535E-015   5.8421718590033276E-015  0.38455721103757995     
 chl2c          39  0.47091110204319175        2.5670077108751441E-002  0.47091117500000002        3.4946613639957844E-022   5.3111333115860470E-016
 chl          39   2.7511435884489793E-015   5.8421718590033276E-015  0.47091110204319175     
 chl2c          40  0.66875547499999999        3.7687445774703773E-002  0.66875547499999999        1.0113103942645422E-022   9.0378043184449006E-006
 chl          40   3.9069844165994031E-015   5.8421718590033276E-015  0.66875547499999999     
 chl2c          41  0.44304987499999998        2.5582381488167241E-002  0.44304987499999998        3.4946613639957844E-022   7.6008724940596598E-006
 chl          41   2.5883735118599420E-015   5.8421718590033276E-015  0.44304987499999998     
 chl2c          42  0.76234377499999995        3.7949995630725070E-002  0.76234377499999995        1.0113103942645422E-022   1.1451290954883548E-005
 chl          42   4.4537433491913638E-015   5.8421718590033276E-015  0.76234377499999995     
 chl2c          43  0.29539925000000000        2.1185090152268007E-002  0.29539925000000000        1.0113103942645422E-022   7.7688920882466089E-006
 chl          43   1.7257731855206887E-015   5.8421718590033276E-015  0.29539925000000000     
 chl2c          44  0.62417262500000004        3.7536352708156646E-002  0.62417262500000004        1.0113103942645422E-022   3.3247768530552919E-006
 chl          44   3.6465237449352369E-015   5.8421718590033276E-015  0.62417262500000004     
 chl2c          45  0.37661582095916224        4.6544927192009838E-002  0.37662252499999999        2.9839179806111809E-023   3.1566402171553640E-019
 chl          45   2.2002543508630531E-015   5.8421718590033276E-015  0.37661582095916224     
 chl2c          46  0.51876033498492724        3.7083195475449568E-002  0.51876034999999998        1.0113103942645422E-022   9.0627619115092726E-016
 chl          46   3.0306870306160815E-015   5.8421718590033276E-015  0.51876033498492724     
 chl2c          47  0.61962280359909061        3.7519784612651236E-002  0.61962282499999999        1.0113103942645422E-022   9.0714570345975337E-016
 chl          47   3.6199429063833533E-015   5.8421718590033276E-015  0.61962280359909061     
 chl2c          48  0.71424949999999998        3.7823212136301673E-002  0.71424949999999998        1.0113103942645422E-022   9.4113783527324400E-006
 chl          48   4.1727683292071968E-015   5.8421718590033276E-015  0.71424949999999998     
 chl2c          49  0.53276118405736639        3.7152990741888416E-002  0.53276120000000005        1.0113103942645422E-022   9.0024262319183351E-016
 chl          49   3.1124823970692382E-015   5.8421718590033276E-015  0.53276118405736639     
 chl2c          50  0.38132568611609485        2.1533072915600981E-002  0.38132569999999999        1.0113103942645422E-022   5.2958414413005875E-016
 chl          50   2.2277701925425853E-015   5.8421718590033276E-015  0.38132568611609485     
 chl2c          51  0.22275919532461130        2.0700971146093840E-002  0.22275920000000002        1.0113103942645422E-022   5.3667089556191552E-016
 chl          51   1.3013975022596698E-015   5.8421718590033276E-015  0.22275919532461130     
 chl2c          52  0.63698869999999996        3.7581825176985564E-002  0.63698869999999996        1.0113103942645422E-022   7.3645409346848507E-006
 chl          52   3.7213974576431129E-015   5.8421718590033276E-015  0.63698869999999996     
 chl2c          53  0.75269794999999995        3.7925801262726190E-002  0.75269794999999995        1.0113103942645422E-022   1.0219673648767953E-005
 chl          53   4.3973907818194936E-015   5.8421718590033276E-015  0.75269794999999995     
 chl2c          54  0.51861123473450177        3.7082433371327092E-002  0.51861124999999997        1.0113103942645422E-022   8.9089669414893598E-016
 chl          54   3.0298159613288752E-015   5.8421718590033276E-015  0.51861123473450177     
 chl2c          55  0.57808280000000001        3.7357235588660491E-002  0.57808280000000001        1.0113103942645422E-022   2.5822892246401326E-006
 chl          55   3.3772590663338488E-015   5.8421718590033276E-015  0.57808280000000001     
 chl2c          56  0.61626077500257181        3.7507394187257688E-002  0.61626080000000005        1.0113103942645422E-022   7.6822460752959337E-016
 chl          56   3.6003013575276061E-015   5.8421718590033276E-015  0.61626077500257181     
 chl2c          57  0.68163459919046998        3.7727617852646313E-002  0.68163462500000005        1.0113103942645422E-022   9.1028555003736406E-016
 chl          57   3.9822264735135761E-015   5.8421718590033276E-015  0.68163459919046998     
 chl2c          58  0.69416802499999997        3.7765358178394853E-002  0.69416802499999997        1.0113103942645422E-022   1.0910377537196122E-005
 chl          58   4.0554489010749179E-015   5.8421718590033276E-015  0.69416802499999997     
 chl2c          59  0.53705127500000005        3.7173699120809672E-002  0.53705127500000005        1.0113103942645422E-022   1.3485689521706422E-005
 chl          59   3.1375458456468575E-015   5.8421718590033276E-015  0.53705127500000005     
 chl2c          60  0.64452155000000000        3.7607757740906807E-002  0.64452155000000000        1.0113103942645422E-022   1.2902860375412138E-005
 chl          60   3.7654056619312062E-015   5.8421718590033276E-015  0.64452155000000000     
 chl2c          61  0.70794137193186146        3.7805373434125003E-002  0.70794139999999994        1.0113103942645422E-022   9.0289129925513439E-016
 chl          61   4.1359151609245289E-015   5.8421718590033276E-015  0.70794137193186146     
 chl2c          62  0.76481592499999995        3.7956103087269030E-002  0.76481592499999995        1.0113103942645422E-022   9.4769353083476871E-006
 chl          62   4.4681860743525997E-015   5.8421718590033276E-015  0.76481592499999995     
 chl2c          63  0.72597904999999996        3.7855601011927406E-002  0.72597904999999996        1.0113103942645422E-022   8.6358317585173345E-006
 chl          63   4.2412943761359691E-015   5.8421718590033276E-015  0.72597904999999996     
 chl2c          64  0.48435732144379523        2.5708982294816416E-002  0.48435739999999999        3.4946613639957844E-022   5.2182684524974490E-016
 chl          64   2.8296987130411697E-015   5.8421718590033276E-015  0.48435732144379523     
 chl2c          65  0.76379975000000000        3.7953597170552002E-002  0.76379975000000000        1.0113103942645422E-022   1.1361616166513159E-005
 chl          65   4.4622494053637765E-015   5.8421718590033276E-015  0.76379975000000000     
 chl2c          66  0.35211493434954061        3.1840477731474713E-002  0.35213202499999996        7.1565588629192277E-023   2.5960056274838604E-019
 chl          66   2.0571159605916904E-015   5.8421718590033276E-015  0.35211493434954061     
 chl2c          67  0.75736756776792469        3.7937587124568600E-002  0.75736760000000003        1.0113103942645422E-022   8.9986970731330287E-016
 chl          67   4.4246714913355651E-015   5.8421718590033276E-015  0.75736756776792469     
 chl2c          68  0.72590779999999999        3.7855407263856986E-002  0.72590779999999999        1.0113103942645422E-022   1.1116662898003945E-005
 chl          68   4.2408781213910157E-015   5.8421718590033276E-015  0.72590779999999999     
 chl2c          69  0.45524215512146748        2.1732330561541505E-002  0.45524217500000003        1.0113103942645422E-022   5.2717537264610667E-016
 chl          69   2.6596029076826650E-015   5.8421718590033276E-015  0.45524215512146748     
 chl2c          70  0.48693857791417688        3.2658010878182209E-002  0.48694062500000002        7.1565588629192277E-023   4.1446550713758601E-018
 chl          70   2.8447788569533035E-015   5.8421718590033276E-015  0.48693857791417688     
 chl2c          71  0.23986107499999978        4.3481058864416305E-002  0.23986107500000001        2.9839179806111809E-023   4.2935007178822601E-009
 chl          71   1.4013096224352854E-015   5.8421718590033276E-015  0.23986107499999978     
 chl2c          72  0.62790522500000001        3.7549776402781669E-002  0.62790522500000001        1.0113103942645422E-022   6.0549047650540446E-006
 chl          72   3.6683302356161526E-015   5.8421718590033276E-015  0.62790522500000001     
 chl2c          73  0.35360840026014478        3.1852614277819484E-002  0.35362212500000001        7.1565588629192277E-023   3.2601090978465187E-019
 chl          73   2.0658410451070029E-015   5.8421718590033276E-015  0.35360840026014478     
 chl2c          74  0.64719590000000005        3.7616827685877569E-002  0.64719590000000005        1.0113103942645422E-022   1.3123626093307754E-005
 chl          74   3.7810296742423321E-015   5.8421718590033276E-015  0.64719590000000005     
 chl2c          75  0.71554209129947599        3.7826830779512356E-002  0.71554212500000003        1.0113103942645422E-022   7.6822460752959337E-016
 chl          75   4.1803198697221885E-015   5.8421718590033276E-015  0.71554209129947599     
 chl2c          76  0.55513975471519050        3.7257729557919804E-002  0.55513977500000000        1.0113103942645422E-022   7.6822460752959337E-016
 chl          76   3.2432218528110959E-015   5.8421718590033276E-015  0.55513975471519050     
 chl2c          77  0.52973029999999999        3.7138172437479272E-002  0.52973029999999999        1.0113103942645422E-022   1.3094543456661878E-005
 chl          77   3.0947754515213902E-015   5.8421718590033276E-015  0.52973029999999999     
 chl2c          78  0.45117421513992123        4.7515248899399322E-002  0.45117492500000000        2.9839179806111809E-023   4.2783209293029046E-018
 chl          78   2.6358373031983608E-015   5.8421718590033276E-015  0.45117421513992123     
 prod   1.1784903087000959E-009   2.8716036545428108E-016   10.000000000000000     
 dcdom   1.2513453300122608E-012  -4.9757672290549350E-012
 chl2c           1  0.60826437499999997        3.7477407714772232E-002  0.60826437499999997        0.0000000000000000        1.1341033772576331E-005
 chl           1   3.1977742597510118E-019   5.2572111588008290E-019  0.60826437499999997     
 chl2c           2  0.48302390000000001        3.2640259920490348E-002  0.48302390000000001        0.0000000000000000        2.2749846439488476E-019
 chl           2   2.5393586370474960E-019   5.2572111588008290E-019  0.48302390000000001     
 chl2c           3  0.75128689999999998        3.7922212503796585E-002  0.75128689999999998        0.0000000000000000        7.9601018600399142E-016
 chl           3   3.9496738741408822E-019   5.2572111588008290E-019  0.75128689999999998     
 chl2c           4  0.77318742499999993        3.7976509103863923E-002  0.77318742499999993        0.0000000000000000        6.9027170369087507E-006
 chl           4   4.0648095585544788E-019   5.2572111588008290E-019  0.77318742499999993     
 chl2c           5  0.48489679999999996        2.5710500362372445E-002  0.48489679999999996        0.0000000000000000        5.3109720890948233E-016
 chl           5   2.5492048678268137E-019   5.2572111588008290E-019  0.48489679999999996     
 chl2c           6  0.29222855000000003        3.1261039902252048E-002  0.29222855000000003        0.0000000000000000        5.4679049672708334E-008
 chl           6   1.5363071939801861E-019   5.2572111588008290E-019  0.29222855000000003     
 chl2c           7  0.22770740000000000        4.3064391842467263E-002  0.22770740000000000        0.0000000000000000        2.2199173654482703E-019
 chl           7   1.1971058842215240E-019   5.2572111588008290E-019  0.22770740000000000     
 chl2c           8  0.49578364999999996        4.7969800906495587E-002  0.49578364999999996        0.0000000000000000        2.8011590796163333E-009
 chl           8   2.6064393371310044E-019   5.2572111588008290E-019  0.49578364999999996     
 chl2c           9  0.28700202499999999        2.4803669054600401E-002  0.28700202499999999        0.0000000000000000        2.2934098914285575E-006
 chl           9   1.5088302484284345E-019   5.2572111588008290E-019  0.28700202499999999     
 chl2c          10  0.39094662499999999        2.5387016219684602E-002  0.39094662499999999        0.0000000000000000        5.3502340248834719E-016
 chl          10   2.0552889594455230E-019   5.2572111588008290E-019  0.39094662499999999     
 chl2c          11  0.49737575000000001        2.1820572217820047E-002  0.49737575000000001        0.0000000000000000        5.3565157775559552E-016
 chl          11   2.6148093430169315E-019   5.2572111588008290E-019  0.49737575000000001     
 chl2c          12  0.30768942500000002        4.5290941298723353E-002  0.30768942500000002        0.0000000000000000        1.0747075639527384E-009
 chl          12   1.6175882785550108E-019   5.2572111588008290E-019  0.30768942500000002     
 chl2c          13  0.75666275000000005        3.7935816987997487E-002  0.75666275000000005        0.0000000000000000        9.0008782971545945E-006
 chl          13   3.9779358527489223E-019   5.2572111588008290E-019  0.75666275000000005     
 chl2c          14  0.39804095000000000        4.6856526101924839E-002  0.39804095000000000        0.0000000000000000        3.2263045313124794E-018
 chl          14   2.0925853239996828E-019   5.2572111588008290E-019  0.39804095000000000     
 chl2c          15  0.25607262500000000        2.0954299823745293E-002  0.25607262500000000        0.0000000000000000        5.3743120641379426E-016
 chl          15   1.3462278616134201E-019   5.2572111588008290E-019  0.25607262500000000     
 chl2c          16  0.71433214999999994        3.7823443882273475E-002  0.71433214999999994        0.0000000000000000        1.0124628416135177E-005
 chl          16   3.7553949500701874E-019   5.2572111588008290E-019  0.71433214999999994     
 chl2c          17  0.62580860000000005        3.7542254757581245E-002  0.62580860000000005        0.0000000000000000        7.9601018600399142E-016
 chl          17   3.2900079551935247E-019   5.2572111588008290E-019  0.62580860000000005     
 chl2c          18  0.47925950000000000        2.5694475239060960E-002  0.47925950000000000        0.0000000000000000        5.3640425255645742E-016
 chl          18   2.5195683913613059E-019   5.2572111588008290E-019  0.47925950000000000     
 chl2c          19  0.63367130000000005        3.7570220750293731E-002  0.63367130000000005        0.0000000000000000        9.4061660129542984E-006
 chl          19   3.3313438293718279E-019   5.2572111588008290E-019  0.63367130000000005     
 chl2c          20  0.50678202500000002        3.7020645196759419E-002  0.50678202500000002        0.0000000000000000        6.7709483689012218E-006
 chl          20   2.6642601169096807E-019   5.2572111588008290E-019  0.50678202500000002     
 chl2c          21  0.71973185000000006        3.7838475073783531E-002  0.71973185000000006        0.0000000000000000        1.2501104925194997E-005
 chl          21   3.7837823131643649E-019   5.2572111588008290E-019  0.71973185000000006     
 chl2c          22  0.64616892500000001        3.7613353106285476E-002  0.64616892500000001        0.0000000000000000        1.0632218509895828E-006
 chl          22   3.3970464829803358E-019   5.2572111588008290E-019  0.64616892500000001     
 chl2c          23  0.41564179999999995        3.2286562315070731E-002  0.41564179999999995        0.0000000000000000        4.5535687710749834E-009
 chl          23   2.1851167090240624E-019   5.2572111588008290E-019  0.41564179999999995     
 chl2c          24  0.57597492500000003        3.7348402796863071E-002  0.57597492500000003        0.0000000000000000        9.0238576170949652E-016
 chl          24   3.0280218028994708E-019   5.2572111588008290E-019  0.57597492500000003     
 chl2c          25  0.31406487500000002        4.5426679235459781E-002  0.31406487500000002        0.0000000000000000        3.4515847656415888E-009
 chl          25   1.6511053654373876E-019   5.2572111588008290E-019  0.31406487500000002     
 chl2c          26  0.49427735000000000        4.7955660680174553E-002  0.49427735000000000        0.0000000000000000        2.2447718507668869E-019
 chl          26   2.5985203999625029E-019   5.2572111588008290E-019  0.49427735000000000     
 chl2c          27  0.30964730000000001        4.5333133499525620E-002  0.30964730000000001        0.0000000000000000        3.1983699389800354E-018
 chl          27   1.6278812408525481E-019   5.2572111588008290E-019  0.30964730000000001     
 chl2c          28  0.28776342500000002        3.1209236063453518E-002  0.28776342500000002        0.0000000000000000        3.1784873741500288E-018
 chl          28   1.5128330890047456E-019   5.2572111588008290E-019  0.28776342500000002     
 chl2c          29  0.68676297499999994        3.7743217595736761E-002  0.68676297499999994        0.0000000000000000        9.1230661918567195E-016
 chl          29   3.6104579756212544E-019   5.2572111588008290E-019  0.68676297499999994     
 chl2c          30  0.38930277499999999        2.5380056985171612E-002  0.38930277499999999        0.0000000000000000        5.3791955469423559E-016
 chl          30   2.0466468928821284E-019   5.2572111588008290E-019  0.38930277499999999     
 chl2c          31  0.63559385000000002        3.7576959810037038E-002  0.63559385000000002        0.0000000000000000        9.1599860739739143E-016
 chl          31   3.3414510806851805E-019   5.2572111588008290E-019  0.63559385000000002     
 chl2c          32  0.24722667500000001        2.0893126428578448E-002  0.24722667500000001        0.0000000000000000        5.3817072096165230E-016
 chl          32   1.2997228345632260E-019   5.2572111588008290E-019  0.24722667500000001     
 chl2c          33  0.60343137499999999        3.7458922634011876E-002  0.60343137499999999        0.0000000000000000        9.8832649371797472E-006
 chl          33   3.1723661582205275E-019   5.2572111588008290E-019  0.60343137499999999     
 chl2c          34  0.38241020000000003        2.5350269098008315E-002  0.38241020000000003        0.0000000000000000        5.3055991886950415E-016
 chl          34   2.0104111706792570E-019   5.2572111588008290E-019  0.38241020000000003     
 chl2c          35  0.49574644999999995        2.5740370148566064E-002  0.49574644999999995        0.0000000000000000        5.3192362657825815E-016
 chl          35   2.6062437688758971E-019   5.2572111588008290E-019  0.49574644999999995     
 chl2c          36  0.69587337500000002        3.7770393924465726E-002  0.69587337500000002        0.0000000000000000        7.9601018600399142E-016
 chl          36   3.6583532721623939E-019   5.2572111588008290E-019  0.69587337500000002     
 chl2c          37  0.33194060000000003        2.1353674699533250E-002  0.33194060000000003        0.0000000000000000        5.2996973047479039E-016
 chl          37   1.7450818263790426E-019   5.2572111588008290E-019  0.33194060000000003     
 chl2c          38  0.38455722500000000        2.1543295686358745E-002  0.38455722500000000        0.0000000000000000        5.3824108419253179E-016
 chl          38   2.0216985344674812E-019   5.2572111588008290E-019  0.38455722500000000     
 chl2c          39  0.47091117500000002        2.5670077108751441E-002  0.47091117500000002        0.0000000000000000        5.3451833703965811E-016
 chl          39   2.4756794840140101E-019   5.2572111588008290E-019  0.47091117500000002     
 chl2c          40  0.66875547499999999        3.7687445774703773E-002  0.66875547499999999        0.0000000000000000        1.0112953464773476E-005
 chl          40   3.5157887456791485E-019   5.2572111588008290E-019  0.66875547499999999     
 chl2c          41  0.44304987499999998        2.5582381488167241E-002  0.44304987499999998        0.0000000000000000        7.4994087553735884E-006
 chl          41   2.3292067467553125E-019   5.2572111588008290E-019  0.44304987499999998     
 chl2c          42  0.76234377499999995        3.7949995630725070E-002  0.76234377499999995        0.0000000000000000        1.2108672252118759E-005
 chl          42   4.0078022007723483E-019   5.2572111588008290E-019  0.76234377499999995     
 chl2c          43  0.29539925000000000        2.1185090152268007E-002  0.29539925000000000        0.0000000000000000        7.1248259657096705E-006
 chl          43   1.5529762334013957E-019   5.2572111588008290E-019  0.29539925000000000     
 chl2c          44  0.62417262500000004        3.7536352708156646E-002  0.62417262500000004        0.0000000000000000        5.6271207242640753E-006
 chl          44   3.2814072891680056E-019   5.2572111588008290E-019  0.62417262500000004     
 chl2c          45  0.37662252499999999        4.6544927192009838E-002  0.37662252499999999        0.0000000000000000        2.9897103355445972E-019
 chl          45   1.9799841410857440E-019   5.2572111588008290E-019  0.37662252499999999     
 chl2c          46  0.51876034999999998        3.7083195475449568E-002  0.51876034999999998        0.0000000000000000        9.1595312902587970E-016
 chl          46   2.7272327007634235E-019   5.2572111588008290E-019  0.51876034999999998     
 chl2c          47  0.61962282499999999        3.7519784612651236E-002  0.61962282499999999        0.0000000000000000        9.1668591173295589E-016
 chl          47   3.2574880298376933E-019   5.2572111588008290E-019  0.61962282499999999     
 chl2c          48  0.71424949999999998        3.7823212136301673E-002  0.71424949999999998        0.0000000000000000        1.0789361367119694E-005
 chl          48   3.7549604415679127E-019   5.2572111588008290E-019  0.71424949999999998     
 chl2c          49  0.53276120000000005        3.7152990741888416E-002  0.53276120000000005        0.0000000000000000        9.1086211319701461E-016
 chl          49   2.8008381256161205E-019   5.2572111588008290E-019  0.53276120000000005     
 chl2c          50  0.38132569999999999        2.1533072915600981E-002  0.38132569999999999        0.0000000000000000        5.3323885529455048E-016
 chl          50   2.0047097251775371E-019   5.2572111588008290E-019  0.38132569999999999     
 chl2c          51  0.22275920000000002        2.0700971146093840E-002  0.22275920000000002        0.0000000000000000        5.3916023756711809E-016
 chl          51   1.1710921519655457E-019   5.2572111588008290E-019  0.22275920000000002     
 chl2c          52  0.63698869999999996        3.7581825176985564E-002  0.63698869999999996        0.0000000000000000        8.9261178912714323E-006
 chl          52   3.3487841016700335E-019   5.2572111588008290E-019  0.63698869999999996     
 chl2c          53  0.75269794999999995        3.7925801262726190E-002  0.75269794999999995        0.0000000000000000        1.0837540601556364E-005
 chl          53   3.9570920619465081E-019   5.2572111588008290E-019  0.75269794999999995     
 chl2c          54  0.51861124999999997        3.7082433371327092E-002  0.51861124999999997        0.0000000000000000        9.0295448784419184E-016
 chl          54   2.7264488505796465E-019   5.2572111588008290E-019  0.51861124999999997     
 chl2c          55  0.57808280000000001        3.7357235588660491E-002  0.57808280000000001        0.0000000000000000        3.2854640008605424E-007
 chl          55   3.0391033468708278E-019   5.2572111588008290E-019  0.57808280000000001     
 chl2c          56  0.61626080000000005        3.7507394187257688E-002  0.61626080000000005        0.0000000000000000        7.9601018600399142E-016
 chl          56   3.2398131544915264E-019   5.2572111588008290E-019  0.61626080000000005     
 chl2c          57  0.68163462500000005        3.7727617852646313E-002  0.68163462500000005        0.0000000000000000        9.1933015872834445E-016
 chl          57   3.5834971567750189E-019   5.2572111588008290E-019  0.68163462500000005     
 chl2c          58  0.69416802499999997        3.7765358178394853E-002  0.69416802499999997        0.0000000000000000        1.0286404025655110E-005
 chl          58   3.6493878871127329E-019   5.2572111588008290E-019  0.69416802499999997     
 chl2c          59  0.53705127500000005        3.7173699120809672E-002  0.53705127500000005        0.0000000000000000        1.3117518109202219E-005
 chl          59   2.8233919557782128E-019   5.2572111588008290E-019  0.53705127500000005     
 chl2c          60  0.64452155000000000        3.7607757740906807E-002  0.64452155000000000        0.0000000000000000        1.2182162676289844E-005
 chl          60   3.3883858847476066E-019   5.2572111588008290E-019  0.64452155000000000     
 chl2c          61  0.70794139999999994        3.7805373434125003E-002  0.70794139999999994        0.0000000000000000        9.1309836123683735E-016
 chl          61   3.7217974278570808E-019   5.2572111588008290E-019  0.70794139999999994     
 chl2c          62  0.76481592499999995        3.7956103087269030E-002  0.76481592499999995        0.0000000000000000        1.0792762108780237E-005
 chl          62   4.0207988153385775E-019   5.2572111588008290E-019  0.76481592499999995     
 chl2c          63  0.72597904999999996        3.7855601011927406E-002  0.72597904999999996        0.0000000000000000        6.9036835169962475E-006
 chl          63   3.8166251627156245E-019   5.2572111588008290E-019  0.72597904999999996     
 chl2c          64  0.48435739999999999        2.5708982294816416E-002  0.48435739999999999        0.0000000000000000        5.2673111634727925E-016
 chl          64   2.5463691281277564E-019   5.2572111588008290E-019  0.48435739999999999     
 chl2c          65  0.76379975000000000        3.7953597170552002E-002  0.76379975000000000        0.0000000000000000        1.1341825269536733E-005
 chl          65   4.0154565687892836E-019   5.2572111588008290E-019  0.76379975000000000     
 chl2c          66  0.35213202499999996        3.1840477731474713E-002  0.35213202499999996        0.0000000000000000        2.4587100676603579E-019
 chl          66   1.8512324112011324E-019   5.2572111588008290E-019  0.35213202499999996     
 chl2c          67  0.75736760000000003        3.7937587124568600E-002  0.75736760000000003        0.0000000000000000        9.1054709486723186E-016
 chl          67   3.9816413980342027E-019   5.2572111588008290E-019  0.75736760000000003     
 chl2c          68  0.72590779999999999        3.7855407263856986E-002  0.72590779999999999        0.0000000000000000        1.0685238096658145E-005
 chl          68   3.8162505864205605E-019   5.2572111588008290E-019  0.72590779999999999     
 chl2c          69  0.45524217500000003        2.1732330561541505E-002  0.45524217500000003        0.0000000000000000        5.3122122741706494E-016
 chl          69   2.3933042423667598E-019   5.2572111588008290E-019  0.45524217500000003     
 chl2c          70  0.48694062500000002        3.2658010878182209E-002  0.48694062500000002        0.0000000000000000        3.9300540094363385E-018
 chl          70   2.5599496874234498E-019   5.2572111588008290E-019  0.48694062500000002     
 chl2c          71  0.23986107500000001        4.3481058864416305E-002  0.23986107500000001        0.0000000000000000        3.9139601920740597E-009
 chl          71   1.2610003200519626E-019   5.2572111588008290E-019  0.23986107500000001     
 chl2c          72  0.62790522500000001        3.7549776402781669E-002  0.62790522500000001        0.0000000000000000        7.8890652596164078E-006
 chl          72   3.3010303555393453E-019   5.2572111588008290E-019  0.62790522500000001     
 chl2c          73  0.35362212500000001        3.1852614277819484E-002  0.35362212500000001        0.0000000000000000        3.0877106278382397E-019
 chl          73   1.8590661815488615E-019   5.2572111588008290E-019  0.35362212500000001     
 chl2c          74  0.64719590000000005        3.7616827685877569E-002  0.64719590000000005        0.0000000000000000        1.2388027750721882E-005
 chl          74   3.4024455074101458E-019   5.2572111588008290E-019  0.64719590000000005     
 chl2c          75  0.71554212500000003        3.7826830779512356E-002  0.71554212500000003        0.0000000000000000        7.9601018600399142E-016
 chl          75   3.7617560441420579E-019   5.2572111588008290E-019  0.71554212500000003     
 chl2c          76  0.55513977500000000        3.7257729557919804E-002  0.55513977500000000        0.0000000000000000        7.9601018600399142E-016
 chl          76   2.9184870198241812E-019   5.2572111588008290E-019  0.55513977500000000     
 chl2c          77  0.52973029999999999        3.7138172437479272E-002  0.52973029999999999        0.0000000000000000        1.2693204277669784E-005
 chl          77   2.7849040443149108E-019   5.2572111588008290E-019  0.52973029999999999     
 chl2c          78  0.45117492500000000        4.7515248899399322E-002  0.45117492500000000        0.0000000000000000        4.0568429265779504E-018
 chl          78   2.3719218502811272E-019   5.2572111588008290E-019  0.45117492500000000     
 prod   1.1161353976876851E-009   0.0000000000000000        10.000000000000000     
 dcdom   1.2563885868134371E-012  -2.9855369085733365E-012
 chl2c           1  0.60826437499999997        3.7477407714772232E-002  0.60826437499999997        0.0000000000000000        1.1192030307927382E-005
 chl           1   6.5780485354017782E-024   1.0814456354445842E-023  0.60826437499999997     
 chl2c           2  0.48302390000000001        3.2640259920490348E-002  0.48302390000000001        0.0000000000000000        2.1479298199401083E-019
 chl           2   5.2236408847042126E-024   1.0814456354445842E-023  0.48302390000000001     
 chl2c           3  0.75128689999999998        3.7922212503796585E-002  0.75128689999999998        0.0000000000000000        8.1690672048899111E-016
 chl           3   8.1247593897169170E-024   1.0814456354445842E-023  0.75128689999999998     
 chl2c           4  0.77318742499999993        3.7976509103863923E-002  0.77318742499999993        0.0000000000000000        4.7553030456848769E-006
 chl           4   8.3616016614688665E-024   1.0814456354445842E-023  0.77318742499999993     
 chl2c           5  0.48489679999999996        2.5710500362372445E-002  0.48489679999999996        0.0000000000000000        5.3399193265042175E-016
 chl           5   5.2438952800104543E-024   1.0814456354445842E-023  0.48489679999999996     
 chl2c           6  0.29222855000000003        3.1261039902252048E-002  0.29222855000000003        0.0000000000000000        5.3327713721145995E-008
 chl           6   3.1602928994979947E-024   1.0814456354445842E-023  0.29222855000000003     
 chl2c           7  0.22770740000000000        4.3064391842467263E-002  0.22770740000000000        0.0000000000000000        2.0959368046429767E-019
 chl           7   2.4625317388843411E-024   1.0814456354445842E-023  0.22770740000000000     
 chl2c           8  0.49578364999999996        4.7969800906495587E-002  0.49578364999999996        0.0000000000000000        1.9975383851263227E-009
 chl           8   5.3616306441728525E-024   1.0814456354445842E-023  0.49578364999999996     
 chl2c           9  0.28700202499999999        2.4803669054600401E-002  0.28700202499999999        0.0000000000000000        4.2584581627260748E-007
 chl           9   3.1037708730000742E-024   1.0814456354445842E-023  0.28700202499999999     
 chl2c          10  0.39094662499999999        2.5387016219684602E-002  0.39094662499999999        0.0000000000000000        5.3736846894706699E-016
 chl          10   4.2278752129804057E-024   1.0814456354445842E-023  0.39094662499999999     
 chl2c          11  0.49737575000000001        2.1820572217820047E-002  0.49737575000000001        0.0000000000000000        5.3790816168129159E-016
 chl          11   5.3788483401347667E-024   1.0814456354445842E-023  0.49737575000000001     
 chl2c          12  0.30768942500000002        4.5290941298723353E-002  0.30768942500000002        0.0000000000000000        1.7300931059166630E-009
 chl          12   3.3274938573870374E-024   1.0814456354445842E-023  0.30768942500000002     
 chl2c          13  0.75666275000000005        3.7935816987997487E-002  0.75666275000000005        0.0000000000000000        1.0343893794961030E-005
 chl          13   8.1828962849099652E-024   1.0814456354445842E-023  0.75666275000000005     
 chl2c          14  0.39804095000000000        4.6856526101924839E-002  0.39804095000000000        0.0000000000000000        3.0498130958054594E-018
 chl          14   4.3045964810571598E-024   1.0814456354445842E-023  0.39804095000000000     
 chl2c          15  0.25607262500000000        2.0954299823745293E-002  0.25607262500000000        0.0000000000000000        5.3943639735259602E-016
 chl          15   2.7692862266308770E-024   1.0814456354445842E-023  0.25607262500000000     
 chl2c          16  0.71433214999999994        3.7823443882273475E-002  0.71433214999999994        0.0000000000000000        1.0670147245559806E-005
 chl          16   7.7251138587524603E-024   1.0814456354445842E-023  0.71433214999999994     
 chl2c          17  0.62580860000000005        3.7542254757581245E-002  0.62580860000000005        0.0000000000000000        8.1690672048899111E-016
 chl          17   6.7677797909368562E-024   1.0814456354445842E-023  0.62580860000000005     
 chl2c          18  0.47925950000000000        2.5694475239060960E-002  0.47925950000000000        0.0000000000000000        5.3855463795775705E-016
 chl          18   5.1829309452035373E-024   1.0814456354445842E-023  0.47925950000000000     
 chl2c          19  0.63367130000000005        3.7570220750293731E-002  0.63367130000000005        0.0000000000000000        7.8630034275168279E-006
 chl          19   6.8528106169149583E-024   1.0814456354445842E-023  0.63367130000000005     
 chl2c          20  0.50678202500000002        3.7020645196759419E-002  0.50678202500000002        0.0000000000000000        8.6642700290549028E-006
 chl          20   5.4805720905801819E-024   1.0814456354445842E-023  0.50678202500000002     
 chl2c          21  0.71973185000000006        3.7838475073783531E-002  0.71973185000000006        0.0000000000000000        1.1498686183677809E-005
 chl          21   7.7835086787295627E-024   1.0814456354445842E-023  0.71973185000000006     
 chl2c          22  0.64616892500000001        3.7613353106285476E-002  0.64616892500000001        0.0000000000000000        8.1690672048899111E-016
 chl          22   6.9879656370116889E-024   1.0814456354445842E-023  0.64616892500000001     
 chl2c          23  0.41564179999999995        3.2286562315070731E-002  0.41564179999999995        0.0000000000000000        4.1992256614274018E-009
 chl          23   4.4949401051833068E-024   1.0814456354445842E-023  0.41564179999999995     
 chl2c          24  0.57597492500000003        3.7348402796863071E-002  0.57597492500000003        0.0000000000000000        9.1112373655286739E-016
 chl          24   6.2288556876677176E-024   1.0814456354445842E-023  0.57597492500000003     
 chl2c          25  0.31406487500000002        4.5426679235459781E-002  0.31406487500000002        0.0000000000000000        3.1952752625247469E-009
 chl          25   3.3964408831519893E-024   1.0814456354445842E-023  0.31406487500000002     
 chl2c          26  0.49427735000000000        4.7955660680174553E-002  0.49427735000000000        0.0000000000000000        2.1194037213813612E-019
 chl          26   5.3453408285661518E-024   1.0814456354445842E-023  0.49427735000000000     
 chl2c          27  0.30964730000000001        4.5333133499525620E-002  0.30964730000000001        0.0000000000000000        3.0233994048315722E-018
 chl          27   3.3486672111219982E-024   1.0814456354445842E-023  0.30964730000000001     
 chl2c          28  0.28776342500000002        3.1209236063453518E-002  0.28776342500000002        0.0000000000000000        3.0045994249099887E-018
 chl          28   3.1120050000683496E-024   1.0814456354445842E-023  0.28776342500000002     
 chl2c          29  0.68676297499999994        3.7743217595736761E-002  0.68676297499999994        0.0000000000000000        9.1971879971882503E-016
 chl          29   7.4269682189868804E-024   1.0814456354445842E-023  0.68676297499999994     
 chl2c          30  0.38930277499999999        2.5380056985171612E-002  0.38930277499999999        0.0000000000000000        5.3985558979311114E-016
 chl          30   4.2100978689021500E-024   1.0814456354445842E-023  0.38930277499999999     
 chl2c          31  0.63559385000000002        3.7576959810037038E-002  0.63559385000000002        0.0000000000000000        9.2291084769123890E-016
 chl          31   6.8736019499791978E-024   1.0814456354445842E-023  0.63559385000000002     
 chl2c          32  0.24722667500000001        2.0893126428578448E-002  0.24722667500000001        0.0000000000000000        5.4007116202273945E-016
 chl          32   2.6736220864422668E-024   1.0814456354445842E-023  0.24722667500000001     
 chl2c          33  0.60343137499999999        3.7458922634011876E-002  0.60343137499999999        0.0000000000000000        7.7241815181757642E-006
 chl          33   6.5257822678407419E-024   1.0814456354445842E-023  0.60343137499999999     
 chl2c          34  0.38241020000000003        2.5350269098008315E-002  0.38241020000000003        0.0000000000000000        5.3352938277553011E-016
 chl          34   4.1355584173949053E-024   1.0814456354445842E-023  0.38241020000000003     
 chl2c          35  0.49574644999999995        2.5740370148566064E-002  0.49574644999999995        0.0000000000000000        5.3470315941120202E-016
 chl          35   5.3612283463964670E-024   1.0814456354445842E-023  0.49574644999999995     
 chl2c          36  0.69587337500000002        3.7770393924465726E-002  0.69587337500000002        0.0000000000000000        8.1690672048899111E-016
 chl          36   7.5254922421584248E-024   1.0814456354445842E-023  0.69587337500000002     
 chl2c          37  0.33194060000000003        2.1353674699533250E-002  0.33194060000000003        0.0000000000000000        5.3302115457131772E-016
 chl          37   3.5897571309685655E-024   1.0814456354445842E-023  0.33194060000000003     
 chl2c          38  0.38455722500000000        2.1543295686358745E-002  0.38455722500000000        0.0000000000000000        5.4013155069162786E-016
 chl          38   4.1587773255493094E-024   1.0814456354445842E-023  0.38455722500000000     
 chl2c          39  0.47091117500000002        2.5670077108751441E-002  0.47091117500000002        0.0000000000000000        5.3693444253279247E-016
 chl          39   5.0926483488583082E-024   1.0814456354445842E-023  0.47091117500000002     
 chl2c          40  0.66875547499999999        3.7687445774703773E-002  0.66875547499999999        0.0000000000000000        1.0663585492486128E-005
 chl          40   7.2322268961841974E-024   1.0814456354445842E-023  0.66875547499999999     
 chl2c          41  0.44304987499999998        2.5582381488167241E-002  0.44304987499999998        0.0000000000000000        7.2846034963934058E-006
 chl          41   4.7913435360301860E-024   1.0814456354445842E-023  0.44304987499999998     
 chl2c          42  0.76234377499999995        3.7949995630725070E-002  0.76234377499999995        0.0000000000000000        1.2277901843850774E-005
 chl          42   8.2443334818209804E-024   1.0814456354445842E-023  0.76234377499999995     
 chl2c          43  0.29539925000000000        2.1185090152268007E-002  0.29539925000000000        0.0000000000000000        6.0501138441819661E-006
 chl          43   3.1945822962610360E-024   1.0814456354445842E-023  0.29539925000000000     
 chl2c          44  0.62417262500000004        3.7536352708156646E-002  0.62417262500000004        0.0000000000000000        7.6857978362045563E-006
 chl          44   6.7500876107023915E-024   1.0814456354445842E-023  0.62417262500000004     
 chl2c          45  0.37662252499999999        4.6544927192009838E-002  0.37662252499999999        0.0000000000000000        2.8227594977556376E-019
 chl          45   4.0729678587136881E-024   1.0814456354445842E-023  0.37662252499999999     
 chl2c          46  0.51876034999999998        3.7083195475449568E-002  0.51876034999999998        0.0000000000000000        9.2287154901796093E-016
 chl          46   5.6101111634920485E-024   1.0814456354445842E-023  0.51876034999999998     
 chl2c          47  0.61962282499999999        3.7519784612651236E-002  0.61962282499999999        0.0000000000000000        9.2350469504782811E-016
 chl          47   6.7008839971809344E-024   1.0814456354445842E-023  0.61962282499999999     
 chl2c          48  0.71424949999999998        3.7823212136301673E-002  0.71424949999999998        0.0000000000000000        1.1546315979263880E-005
 chl          48   7.7242200439347646E-024   1.0814456354445842E-023  0.71424949999999998     
 chl2c          49  0.53276120000000005        3.7152990741888416E-002  0.53276120000000005        0.0000000000000000        9.1846893646694297E-016
 chl          49   5.7615227447421926E-024   1.0814456354445842E-023  0.53276120000000005     
 chl2c          50  0.38132569999999999        2.1533072915600981E-002  0.38132569999999999        0.0000000000000000        5.3583449778355778E-016
 chl          50   4.1238301394785087E-024   1.0814456354445842E-023  0.38132569999999999     
 chl2c          51  0.22275920000000002        2.0700971146093840E-002  0.22275920000000002        0.0000000000000000        5.4092029347609583E-016
 chl          51   2.4090196459512723E-024   1.0814456354445842E-023  0.22275920000000002     
 chl2c          52  0.63698869999999996        3.7581825176985564E-002  0.63698869999999996        0.0000000000000000        9.9354133883831414E-006
 chl          52   6.8886864944251949E-024   1.0814456354445842E-023  0.63698869999999996     
 chl2c          53  0.75269794999999995        3.7925801262726190E-002  0.75269794999999995        0.0000000000000000        1.1037395112489792E-005
 chl          53   8.1400191283558587E-024   1.0814456354445842E-023  0.75269794999999995     
 chl2c          54  0.51861124999999997        3.7082433371327092E-002  0.51861124999999997        0.0000000000000000        9.1161715985586814E-016
 chl          54   5.6084987280496010E-024   1.0814456354445842E-023  0.51861124999999997     
 chl2c          55  0.57808280000000001        3.7357235588660491E-002  0.57808280000000001        0.0000000000000000        9.2509002592884310E-016
 chl          55   6.2516512098558450E-024   1.0814456354445842E-023  0.57808280000000001     
 chl2c          56  0.61626080000000005        3.7507394187257688E-002  0.61626080000000005        0.0000000000000000        8.1690672048899111E-016
 chl          56   6.6645255245558790E-024   1.0814456354445842E-023  0.61626080000000005     
 chl2c          57  0.68163462500000005        3.7727617852646313E-002  0.68163462500000005        0.0000000000000000        9.2578826237274246E-016
 chl          57   7.3715079017415594E-024   1.0814456354445842E-023  0.68163462500000005     
 chl2c          58  0.69416802499999997        3.7765358178394853E-002  0.69416802499999997        0.0000000000000000        9.1536204811255506E-006
 chl          58   7.5070498090143689E-024   1.0814456354445842E-023  0.69416802499999997     
 chl2c          59  0.53705127500000005        3.7173699120809672E-002  0.53705127500000005        0.0000000000000000        1.2712186364680462E-005
 chl          59   5.8079175735869915E-024   1.0814456354445842E-023  0.53705127500000005     
 chl2c          60  0.64452155000000000        3.7607757740906807E-002  0.64452155000000000        0.0000000000000000        1.1065560705480455E-005
 chl          60   6.9701501719747832E-024   1.0814456354445842E-023  0.64452155000000000     
 chl2c          61  0.70794139999999994        3.7805373434125003E-002  0.70794139999999994        0.0000000000000000        9.2040362702497051E-016
 chl          61   7.6560013718052844E-024   1.0814456354445842E-023  0.70794139999999994     
 chl2c          62  0.76481592499999995        3.7956103087269030E-002  0.76481592499999995        0.0000000000000000        1.1499340281271986E-005
 chl          62   8.2710684400976245E-024   1.0814456354445842E-023  0.76481592499999995     
 chl2c          63  0.72597904999999996        3.7855601011927406E-002  0.72597904999999996        0.0000000000000000        4.7563883345340426E-006
 chl          63   7.8510687504670557E-024   1.0814456354445842E-023  0.72597904999999996     
 chl2c          64  0.48435739999999999        2.5708982294816416E-002  0.48435739999999999        0.0000000000000000        5.3022965062923796E-016
 chl          64   5.2380619622528662E-024   1.0814456354445842E-023  0.48435739999999999     
 chl2c          65  0.76379975000000000        3.7953597170552002E-002  0.76379975000000000        0.0000000000000000        1.1204665312069786E-005
 chl          65   8.2600790599116455E-024   1.0814456354445842E-023  0.76379975000000000     
 chl2c          66  0.35213202499999996        3.1840477731474713E-002  0.35213202499999996        0.0000000000000000        2.3213987501199059E-019
 chl          66   3.8081164153651313E-024   1.0814456354445842E-023  0.35213202499999996     
 chl2c          67  0.75736760000000003        3.7937587124568600E-002  0.75736760000000003        0.0000000000000000        9.1819629374555308E-016
 chl          67   8.1905188544713970E-024   1.0814456354445842E-023  0.75736760000000003     
 chl2c          68  0.72590779999999999        3.7855407263856986E-002  0.72590779999999999        0.0000000000000000        9.8026857534990638E-006
 chl          68   7.8502982204518010E-024   1.0814456354445842E-023  0.72590779999999999     
 chl2c          69  0.45524217500000003        2.1732330561541505E-002  0.45524217500000003        0.0000000000000000        5.3409868253809289E-016
 chl          69   4.9231966322404960E-024   1.0814456354445842E-023  0.45524217500000003     
 chl2c          70  0.48694062500000002        3.2658010878182209E-002  0.48694062500000002        0.0000000000000000        3.7152885178898824E-018
 chl          70   5.2659981362690802E-024   1.0814456354445842E-023  0.48694062500000002     
 chl2c          71  0.23986107500000001        4.3481058864416305E-002  0.23986107500000001        0.0000000000000000        3.5242471936609213E-009
 chl          71   2.5939671267179608E-024   1.0814456354445842E-023  0.23986107500000001     
 chl2c          72  0.62790522500000001        3.7549776402781669E-002  0.62790522500000001        0.0000000000000000        9.2211652955411150E-006
 chl          72   6.7904536504909956E-024   1.0814456354445842E-023  0.62790522500000001     
 chl2c          73  0.35362212500000001        3.1852614277819484E-002  0.35362212500000001        0.0000000000000000        2.9152901725638257E-019
 chl          73   3.8242310367788917E-024   1.0814456354445842E-023  0.35362212500000001     
 chl2c          74  0.64719590000000005        3.7616827685877569E-002  0.64719590000000005        0.0000000000000000        1.1274410517949010E-005
 chl          74   6.9990718133262967E-024   1.0814456354445842E-023  0.64719590000000005     
 chl2c          75  0.71554212500000003        3.7826830779512356E-002  0.71554212500000003        0.0000000000000000        8.1690672048899111E-016
 chl          75   7.7381990805799318E-024   1.0814456354445842E-023  0.71554212500000003     
 chl2c          76  0.55513977500000000        3.7257729557919804E-002  0.55513977500000000        0.0000000000000000        8.1690672048899111E-016
 chl          76   6.0035348673543851E-024   1.0814456354445842E-023  0.55513977500000000     
 chl2c          77  0.52973029999999999        3.7138172437479272E-002  0.52973029999999999        0.0000000000000000        1.2072694886624366E-005
 chl          77   5.7287452089775023E-024   1.0814456354445842E-023  0.52973029999999999     
 chl2c          78  0.45117492500000000        4.7515248899399322E-002  0.45117492500000000        0.0000000000000000        3.8351904203076646E-018
 chl          78   4.8792115346328758E-024   1.0814456354445842E-023  0.45117492500000000     
 prod   1.0537764385421954E-009   0.0000000000000000        10.000000000000000     
 dcdom   1.2614321183738479E-012  -9.9518003220516200E-013
 chl2c           1  0.60826437499999997        3.7477407714772232E-002  0.60826437499999997        0.0000000000000000        1.0666497393740154E-005
 chl           1   7.0801522248855657E-027   1.1639925854420731E-026  0.60826437499999997     
 chl2c           2  0.48302390000000001        3.2640259920490348E-002  0.48302390000000001        0.0000000000000000        2.0621037739499495E-019
 chl           2   5.6223623819131336E-027   1.1639925854420731E-026  0.48302390000000001     
 chl2c           3  0.75128689999999998        3.7922212503796585E-002  0.75128689999999998        0.0000000000000000        8.5758756505924872E-016
 chl           3   8.7449238113976018E-027   1.1639925854420731E-026  0.75128689999999998     
 chl2c           4  0.77318742499999993        3.7976509103863923E-002  0.77318742499999993        0.0000000000000000        7.5613802368929595E-007
 chl           4   8.9998442985704884E-027   1.1639925854420731E-026  0.77318742499999993     
 chl2c           5  0.48489679999999996        2.5710500362372445E-002  0.48489679999999996        0.0000000000000000        5.3790861552775588E-016
 chl           5   5.6441627990458777E-027   1.1639925854420731E-026  0.48489679999999996     
 chl2c           6  0.29222855000000003        3.1261039902252048E-002  0.29222855000000003        0.0000000000000000        4.7935595496998388E-008
 chl           6   3.4015186545448815E-027   1.1639925854420731E-026  0.29222855000000003     
 chl2c           7  0.22770740000000000        4.3064391842467263E-002  0.22770740000000000        0.0000000000000000        2.0121875141773746E-019
 chl           7   2.6504972525029230E-027   1.1639925854420731E-026  0.22770740000000000     
 chl2c           8  0.49578364999999996        4.7969800906495587E-002  0.49578364999999996        0.0000000000000000        4.8938786278671563E-010
 chl           8   5.7708849258340783E-027   1.1639925854420731E-026  0.49578364999999996     
 chl2c           9  0.28700202499999999        2.4803669054600401E-002  0.28700202499999999        0.0000000000000000        5.4052556024547600E-016
 chl           9   3.3406822910686045E-027   1.1639925854420731E-026  0.28700202499999999     
 chl2c          10  0.39094662499999999        2.5387016219684602E-002  0.39094662499999999        0.0000000000000000        5.4053464916015707E-016
 chl          10   4.5505897280360258E-027   1.1639925854420731E-026  0.39094662499999999     
 chl2c          11  0.49737575000000001        2.1820572217820047E-002  0.49737575000000001        0.0000000000000000        5.4095393666628192E-016
 chl          11   5.7894168517869017E-027   1.1639925854420731E-026  0.49737575000000001     
 chl2c          12  0.30768942500000002        4.5290941298723353E-002  0.30768942500000002        0.0000000000000000        2.4160676661704376E-009
 chl          12   3.5814820931893488E-027   1.1639925854420731E-026  0.30768942500000002     
 chl2c          13  0.75666275000000005        3.7935816987997487E-002  0.75666275000000005        0.0000000000000000        1.1337112417627472E-005
 chl          13   8.8074983068020897E-027   1.1639925854420731E-026  0.75666275000000005     
 chl2c          14  0.39804095000000000        4.6856526101924839E-002  0.39804095000000000        0.0000000000000000        2.8606744098458541E-018
 chl          14   4.6331671450231895E-027   1.1639925854420731E-026  0.39804095000000000     
 chl2c          15  0.25607262500000000        2.0954299823745293E-002  0.25607262500000000        0.0000000000000000        5.4214072550282254E-016
 chl          15   2.9806663683468842E-027   1.1639925854420731E-026  0.25607262500000000     
 chl2c          16  0.71433214999999994        3.7823443882273475E-002  0.71433214999999994        0.0000000000000000        1.0906815045800474E-005
 chl          16   8.3147732614289470E-027   1.1639925854420731E-026  0.71433214999999994     
 chl2c          17  0.62580860000000005        3.7542254757581245E-002  0.62580860000000005        0.0000000000000000        8.5758756505924872E-016
 chl          17   7.2843657030588423E-027   1.1639925854420731E-026  0.62580860000000005     
 chl2c          18  0.47925950000000000        2.5694475239060960E-002  0.47925950000000000        0.0000000000000000        5.4145605446680097E-016
 chl          18   5.5785450450267519E-027   1.1639925854420731E-026  0.47925950000000000     
 chl2c          19  0.63367130000000005        3.7570220750293731E-002  0.63367130000000005        0.0000000000000000        3.9962046344665835E-006
 chl          19   7.3758869480743963E-027   1.1639925854420731E-026  0.63367130000000005     
 chl2c          20  0.50678202500000002        3.7020645196759419E-002  0.50678202500000002        0.0000000000000000        1.0659137978268280E-005
 chl          20   5.8989051953531936E-027   1.1639925854420731E-026  0.50678202500000002     
 chl2c          21  0.71973185000000006        3.7838475073783531E-002  0.71973185000000006        0.0000000000000000        8.4732739402838295E-006
 chl          21   8.3776253690650632E-027   1.1639925854420731E-026  0.71973185000000006     
 chl2c          22  0.64616892500000001        3.7613353106285476E-002  0.64616892500000001        0.0000000000000000        8.5758756505924872E-016
 chl          22   7.5213583764307499E-027   1.1639925854420731E-026  0.64616892500000001     
 chl2c          23  0.41564179999999995        3.2286562315070731E-002  0.41564179999999995        0.0000000000000000        3.7624960737670101E-009
 chl          23   4.8380397339979699E-027   1.1639925854420731E-026  0.41564179999999995     
 chl2c          24  0.57597492500000003        3.7348402796863071E-002  0.57597492500000003        0.0000000000000000        9.2306075838807842E-016
 chl          24   6.7043054210055416E-027   1.1639925854420731E-026  0.57597492500000003     
 chl2c          25  0.31406487500000002        4.5426679235459781E-002  0.31406487500000002        0.0000000000000000        2.8660530583625427E-009
 chl          25   3.6556918584779155E-027   1.1639925854420731E-026  0.31406487500000002     
 chl2c          26  0.49427735000000000        4.7955660680174553E-002  0.49427735000000000        0.0000000000000000        2.0347170878697462E-019
 chl          26   5.7533517055195649E-027   1.1639925854420731E-026  0.49427735000000000     
 chl2c          27  0.30964730000000001        4.5333133499525620E-002  0.30964730000000001        0.0000000000000000        2.8358911274702905E-018
 chl          27   3.6042716130215724E-027   1.1639925854420731E-026  0.30964730000000001     
 chl2c          28  0.28776342500000002        3.1209236063453518E-002  0.28776342500000002        0.0000000000000000        2.8182516747325688E-018
 chl          28   3.3495449306141608E-027   1.1639925854420731E-026  0.28776342500000002     
 chl2c          29  0.68676297499999994        3.7743217595736761E-002  0.68676297499999994        0.0000000000000000        9.2980808211980372E-016
 chl          29   7.9938701085613971E-027   1.1639925854420731E-026  0.68676297499999994     
 chl2c          30  0.38930277499999999        2.5380056985171612E-002  0.38930277499999999        0.0000000000000000        5.4246616100825675E-016
 chl          30   4.5314554359202361E-027   1.1639925854420731E-026  0.38930277499999999     
 chl2c          31  0.63559385000000002        3.7576959810037038E-002  0.63559385000000002        0.0000000000000000        9.3230712468033865E-016
 chl          31   7.3982652875258124E-027   1.1639925854420731E-026  0.63559385000000002     
 chl2c          32  0.24722667500000001        2.0893126428578448E-002  0.24722667500000001        0.0000000000000000        5.4263350700302134E-016
 chl          32   2.8777001662349713E-027   1.1639925854420731E-026  0.24722667500000001     
 chl2c          33  0.60343137499999999        3.7458922634011876E-002  0.60343137499999999        0.0000000000000000        3.0678408936930458E-006
 chl          33   7.0238964632311519E-027   1.1639925854420731E-026  0.60343137499999999     
 chl2c          34  0.38241020000000003        2.5350269098008315E-002  0.38241020000000003        0.0000000000000000        5.3754844775110607E-016
 chl          34   4.4512263739742028E-027   1.1639925854420731E-026  0.38241020000000003     
 chl2c          35  0.49574644999999995        2.5740370148566064E-002  0.49574644999999995        0.0000000000000000        5.3846220344373360E-016
 chl          35   5.7704519205922934E-027   1.1639925854420731E-026  0.49574644999999995     
 chl2c          36  0.69587337500000002        3.7770393924465726E-002  0.69587337500000002        0.0000000000000000        8.5758756505924872E-016
 chl          36   8.0999144890655124E-027   1.1639925854420731E-026  0.69587337500000002     
 chl2c          37  0.33194060000000003        2.1353674699533250E-002  0.33194060000000003        0.0000000000000000        5.3715258226026339E-016
 chl          37   3.8637639720719301E-027   1.1639925854420731E-026  0.33194060000000003     
 chl2c          38  0.38455722500000000        2.1543295686358745E-002  0.38455722500000000        0.0000000000000000        5.4268038485209066E-016
 chl          38   4.4762175857817904E-027   1.1639925854420731E-026  0.38455722500000000     
 chl2c          39  0.47091117500000002        2.5670077108751441E-002  0.47091117500000002        0.0000000000000000        5.4019737466065606E-016
 chl          39   5.4813711610181453E-027   1.1639925854420731E-026  0.47091117500000002     
 chl2c          40  0.66875547499999999        3.7687445774703773E-002  0.66875547499999999        0.0000000000000000        1.0905580225414010E-005
 chl          40   7.7842641437379168E-027   1.1639925854420731E-026  0.66875547499999999     
 chl2c          41  0.44304987499999998        2.5582381488167241E-002  0.44304987499999998        0.0000000000000000        6.8319752313581243E-006
 chl          41   5.1570676948103727E-027   1.1639925854420731E-026  0.44304987499999998     
 chl2c          42  0.76234377499999995        3.7949995630725070E-002  0.76234377499999995        0.0000000000000000        1.1864808747271837E-005
 chl          42   8.8736250165791997E-027   1.1639925854420731E-026  0.76234377499999995     
 chl2c          43  0.29539925000000000        2.1185090152268007E-002  0.29539925000000000        0.0000000000000000        2.8436130006539627E-006
 chl          43   3.4384253674514930E-027   1.1639925854420731E-026  0.29539925000000000     
 chl2c          44  0.62417262500000004        3.7536352708156646E-002  0.62417262500000004        0.0000000000000000        1.0127308301210693E-005
 chl          44   7.2653230753591561E-027   1.1639925854420731E-026  0.62417262500000004     
 chl2c          45  0.37662252499999999        4.6544927192009838E-002  0.37662252499999999        0.0000000000000000        2.7099821644797046E-019
 chl          45   4.3838582661047178E-027   1.1639925854420731E-026  0.37662252499999999     
 chl2c          46  0.51876034999999998        3.7083195475449568E-002  0.51876034999999998        0.0000000000000000        9.3227637977108489E-016
 chl          46   6.0383320102133474E-027   1.1639925854420731E-026  0.51876034999999998     
 chl2c          47  0.61962282499999999        3.7519784612651236E-002  0.61962282499999999        0.0000000000000000        1.2200999880858554E-006
 chl          47   7.2123637407067118E-027   1.1639925854420731E-026  0.61962282499999999     
 chl2c          48  0.71424949999999998        3.7823212136301673E-002  0.71424949999999998        0.0000000000000000        1.1737897486871445E-005
 chl          48   8.3138112215570795E-027   1.1639925854420731E-026  0.71424949999999998     
 chl2c          49  0.53276120000000005        3.7152990741888416E-002  0.53276120000000005        0.0000000000000000        1.6416692619723704E-006
 chl          49   6.2013008661122144E-027   1.1639925854420731E-026  0.53276120000000005     
 chl2c          50  0.38132569999999999        2.1533072915600981E-002  0.38132569999999999        0.0000000000000000        5.3934227784785836E-016
 chl          50   4.4386028743850829E-027   1.1639925854420731E-026  0.38132569999999999     
 chl2c          51  0.22275920000000002        2.0700971146093840E-002  0.22275920000000002        0.0000000000000000        5.4329263416338068E-016
 chl          51   2.5929005713900788E-027   1.1639925854420731E-026  0.22275920000000002     
 chl2c          52  0.63698869999999996        3.7581825176985564E-002  0.63698869999999996        0.0000000000000000        1.0723800002919391E-005
 chl          52   7.4145012381038507E-027   1.1639925854420731E-026  0.63698869999999996     
 chl2c          53  0.75269794999999995        3.7925801262726190E-002  0.75269794999999995        0.0000000000000000        1.0957732945683662E-005
 chl          53   8.7613483287744811E-027   1.1639925854420731E-026  0.75269794999999995     
 chl2c          54  0.51861124999999997        3.7082433371327092E-002  0.51861124999999997        0.0000000000000000        1.9477558490996560E-006
 chl          54   6.0365964972684527E-027   1.1639925854420731E-026  0.51861124999999997     
 chl2c          55  0.57808280000000001        3.7357235588660491E-002  0.57808280000000001        0.0000000000000000        9.3401113965743060E-016
 chl          55   6.7288409297159280E-027   1.1639925854420731E-026  0.57808280000000001     
 chl2c          56  0.61626080000000005        3.7507394187257688E-002  0.61626080000000005        0.0000000000000000        8.5758756505924872E-016
 chl          56   7.1732300189860038E-027   1.1639925854420731E-026  0.61626080000000005     
 chl2c          57  0.68163462500000005        3.7727617852646313E-002  0.68163462500000005        0.0000000000000000        9.3455678046774633E-016
 chl          57   7.9341764948058804E-027   1.1639925854420731E-026  0.68163462500000005     
 chl2c          58  0.69416802499999997        3.7765358178394853E-002  0.69416802499999997        0.0000000000000000        5.8570761137857436E-006
 chl          58   8.0800643415096763E-027   1.1639925854420731E-026  0.69416802499999997     
 chl2c          59  0.53705127500000005        3.7173699120809672E-002  0.53705127500000005        0.0000000000000000        1.1751135333221671E-005
 chl          59   6.2512370210221186E-027   1.1639925854420731E-026  0.53705127500000005     
 chl2c          60  0.64452155000000000        3.7607757740906807E-002  0.64452155000000000        0.0000000000000000        7.7740208379324525E-006
 chl          60   7.5021830535763233E-027   1.1639925854420731E-026  0.64452155000000000     
 chl2c          61  0.70794139999999994        3.7805373434125003E-002  0.70794139999999994        0.0000000000000000        9.3034453570421891E-016
 chl          61   8.2403854052748081E-027   1.1639925854420731E-026  0.70794139999999994     
 chl2c          62  0.76481592499999995        3.7956103087269030E-002  0.76481592499999995        0.0000000000000000        1.1647282578007391E-005
 chl          62   8.9024006592802062E-027   1.1639925854420731E-026  0.76481592499999995     
 chl2c          63  0.72597904999999996        3.7855601011927406E-002  0.72597904999999996        0.0000000000000000        7.5704157915834558E-007
 chl          63   8.4503423138628003E-027   1.1639925854420731E-026  0.72597904999999996     
 chl2c          64  0.48435739999999999        2.5708982294816416E-002  0.48435739999999999        0.0000000000000000        5.3497569973187422E-016
 chl          64   5.6378842230400036E-027   1.1639925854420731E-026  0.48435739999999999     
 chl2c          65  0.76379975000000000        3.7953597170552002E-002  0.76379975000000000        0.0000000000000000        1.0787805588423999E-005
 chl          65   8.8905724576250900E-027   1.1639925854420731E-026  0.76379975000000000     
 chl2c          66  0.35213202499999996        3.1840477731474713E-002  0.35213202499999996        0.0000000000000000        2.2286441119366228E-019
 chl          66   4.0987906619670268E-027   1.1639925854420731E-026  0.35213202499999996     
 chl2c          67  0.75736760000000003        3.7937587124568600E-002  0.75736760000000003        0.0000000000000000        1.8601746192768844E-006
 chl          67   8.8157027085405783E-027   1.1639925854420731E-026  0.75736760000000003     
 chl2c          68  0.72590779999999999        3.7855407263856986E-002  0.72590779999999999        0.0000000000000000        6.9816753372706899E-006
 chl          68   8.4495129691456732E-027   1.1639925854420731E-026  0.72590779999999999     
 chl2c          69  0.45524217500000003        2.1732330561541505E-002  0.45524217500000003        0.0000000000000000        5.3799172135575092E-016
 chl          69   5.2989851628052271E-027   1.1639925854420731E-026  0.45524217500000003     
 chl2c          70  0.48694062500000002        3.2658010878182209E-002  0.48694062500000002        0.0000000000000000        3.4851170111129311E-018
 chl          70   5.6679527705052894E-027   1.1639925854420731E-026  0.48694062500000002     
 chl2c          71  0.23986107500000001        4.3481058864416305E-002  0.23986107500000001        0.0000000000000000        2.7951555482372449E-009
 chl          71   2.7919651283616499E-027   1.1639925854420731E-026  0.23986107500000001     
 chl2c          72  0.62790522500000001        3.7549776402781669E-002  0.62790522500000001        0.0000000000000000        1.0483393881851114E-005
 chl          72   7.3087702626033664E-027   1.1639925854420731E-026  0.62790522500000001     
 chl2c          73  0.35362212500000001        3.1852614277819484E-002  0.35362212500000001        0.0000000000000000        2.7988178518885139E-019
 chl          73   4.1161353154826992E-027   1.1639925854420731E-026  0.35362212500000001     
 chl2c          74  0.64719590000000005        3.7616827685877569E-002  0.64719590000000005        0.0000000000000000        8.0058562386005351E-006
 chl          74   7.5333122892850943E-027   1.1639925854420731E-026  0.64719590000000005     
 chl2c          75  0.71554212500000003        3.7826830779512356E-002  0.71554212500000003        0.0000000000000000        8.5758756505924872E-016
 chl          75   8.3288572807146505E-027   1.1639925854420731E-026  0.71554212500000003     
 chl2c          76  0.55513977500000000        3.7257729557919804E-002  0.55513977500000000        0.0000000000000000        8.5758756505924872E-016
 chl          76   6.4617858198398069E-027   1.1639925854420731E-026  0.55513977500000000     
 chl2c          77  0.52973029999999999        3.7138172437479272E-002  0.52973029999999999        0.0000000000000000        1.0035726276380632E-005
 chl          77   6.1660214148400494E-027   1.1639925854420731E-026  0.52973029999999999     
 chl2c          78  0.45117492500000000        4.7515248899399322E-002  0.45117492500000000        0.0000000000000000        3.5976348810306696E-018
 chl          78   5.2516426743738340E-027   1.1639925854420731E-026  0.45117492500000000     
 prod   1.0116543378077063E-009   0.0000000000000000        10.000000000000000     
 dcdom   1.2513470755952500E-012  -1.4330248538449777E-017
 chl2c           1  0.60826437499999997        3.7477407714772232E-002  0.60826437499999997        0.0000000000000000        9.0751768723681416E-006
 chl           1   7.2766648433637246E-022   1.1962996917851263E-021  0.60826437499999997     
 chl2c           2  0.48302390000000001        3.2640259920490348E-002  0.48302390000000001        0.0000000000000000        2.0342300865750774E-019
 chl           2   5.7784134269484966E-022   1.1962996917851263E-021  0.48302390000000001     
 chl2c           3  0.75128689999999998        3.7922212503796585E-002  0.75128689999999998        0.0000000000000000        8.8068934110418058E-016
 chl           3   8.9876428691220305E-022   1.1962996917851263E-021  0.75128689999999998     
 chl2c           4  0.77318742499999993        3.7976509103863923E-002  0.77318742499999993        0.0000000000000000        8.8068934110418058E-016
 chl           4   9.2496387821963543E-022   1.1962996917851263E-021  0.77318742499999993     
 chl2c           5  0.48489679999999996        2.5710500362372445E-002  0.48489679999999996        0.0000000000000000        5.3956964183503835E-016
 chl           5   5.8008189238759395E-022   1.1962996917851263E-021  0.48489679999999996     
 chl2c           6  0.29222855000000003        3.1261039902252048E-002  0.29222855000000003        0.0000000000000000        4.2644595090025344E-008
 chl           6   3.4959292429581439E-022   1.1962996917851263E-021  0.29222855000000003     
 chl2c           7  0.22770740000000000        4.3064391842467263E-002  0.22770740000000000        0.0000000000000000        1.9849883073724520E-019
 chl           7   2.7240629243719249E-022   1.1962996917851263E-021  0.22770740000000000     
 chl2c           8  0.49578364999999996        4.7969800906495587E-002  0.49578364999999996        0.0000000000000000        2.1091440519195061E-019
 chl           8   5.9310582768710491E-022   1.1962996917851263E-021  0.49578364999999996     
 chl2c           9  0.28700202499999999        2.4803669054600401E-002  0.28700202499999999        0.0000000000000000        5.4184081042678104E-016
 chl           9   3.4334043404920709E-022   1.1962996917851263E-021  0.28700202499999999     
 chl2c          10  0.39094662499999999        2.5387016219684602E-002  0.39094662499999999        0.0000000000000000        5.4184867389951898E-016
 chl          10   4.6768932699193534E-022   1.1962996917851263E-021  0.39094662499999999     
 chl2c          11  0.49737575000000001        2.1820572217820047E-002  0.49737575000000001        0.0000000000000000        5.4221120267800338E-016
 chl          11   5.9501045642639600E-022   1.1962996917851263E-021  0.49737575000000001     
 chl2c          12  0.30768942500000002        4.5290941298723353E-002  0.30768942500000002        0.0000000000000000        2.4636658339952057E-009
 chl          12   3.6808876429304273E-022   1.1962996917851263E-021  0.30768942500000002     
 chl2c          13  0.75666275000000005        3.7935816987997487E-002  0.75666275000000005        0.0000000000000000        1.1043117779973628E-005
 chl          13   9.0519541461028606E-022   1.1962996917851263E-021  0.75666275000000005     
 chl2c          14  0.39804095000000000        4.6856526101924839E-002  0.39804095000000000        0.0000000000000000        2.7345491733340720E-018
 chl          14   4.7617626580285889E-022   1.1962996917851263E-021  0.39804095000000000     
 chl2c          15  0.25607262500000000        2.0954299823745293E-002  0.25607262500000000        0.0000000000000000        5.4323458438436399E-016
 chl          15   3.0633960236210822E-022   1.1962996917851263E-021  0.25607262500000000     
 chl2c          16  0.71433214999999994        3.7823443882273475E-002  0.71433214999999994        0.0000000000000000        1.0477515058539582E-005
 chl          16   8.5455533087720644E-022   1.1962996917851263E-021  0.71433214999999994     
 chl2c          17  0.62580860000000005        3.7542254757581245E-002  0.62580860000000005        0.0000000000000000        2.8551424955119210E-006
 chl          17   7.4865463529648141E-022   1.1962996917851263E-021  0.62580860000000005     
 chl2c          18  0.47925950000000000        2.5694475239060960E-002  0.47925950000000000        0.0000000000000000        5.4264471959075209E-016
 chl          18   5.7333799213509373E-022   1.1962996917851263E-021  0.47925950000000000     
 chl2c          19  0.63367130000000005        3.7570220750293731E-002  0.63367130000000005        0.0000000000000000        1.3751616193784070E-007
 chl          19   7.5806078088308032E-022   1.1962996917851263E-021  0.63367130000000005     
 chl2c          20  0.50678202500000002        3.7020645196759419E-002  0.50678202500000002        0.0000000000000000        1.0917116838857392E-005
 chl          20   6.0626318030974224E-022   1.1962996917851263E-021  0.50678202500000002     
 chl2c          21  0.71973185000000006        3.7838475073783531E-002  0.71973185000000006        0.0000000000000000        4.1877221836508561E-006
 chl          21   8.6101499032293886E-022   1.1962996917851263E-021  0.71973185000000006     
 chl2c          22  0.64616892500000001        3.7613353106285476E-002  0.64616892500000001        0.0000000000000000        8.8068934110418058E-016
 chl          22   7.7301168581862642E-022   1.1962996917851263E-021  0.64616892500000001     
 chl2c          23  0.41564179999999995        3.2286562315070731E-002  0.41564179999999995        0.0000000000000000        3.4056309307742441E-009
 chl          23   4.9723215723301505E-022   1.1962996917851263E-021  0.41564179999999995     
 chl2c          24  0.57597492500000003        3.7348402796863071E-002  0.57597492500000003        0.0000000000000000        9.2824422998013638E-016
 chl          24   6.8903862525346124E-022   1.1962996917851263E-021  0.57597492500000003     
 chl2c          25  0.31406487500000002        4.5426679235459781E-002  0.31406487500000002        0.0000000000000000        2.6037413058548104E-009
 chl          25   3.7571571316303422E-022   1.1962996917851263E-021  0.31406487500000002     
 chl2c          26  0.49427735000000000        4.7955660680174553E-002  0.49427735000000000        0.0000000000000000        4.1915649939359405E-010
 chl          26   5.9130384146136898E-022   1.1962996917851263E-021  0.49427735000000000     
 chl2c          27  0.30964730000000001        4.5333133499525620E-002  0.30964730000000001        0.0000000000000000        2.7108534514314992E-018
 chl          27   3.7043096955209656E-022   1.1962996917851263E-021  0.30964730000000001     
 chl2c          28  0.28776342500000002        3.1209236063453518E-002  0.28776342500000002        0.0000000000000000        1.3349605413885886E-008
 chl          28   3.4425129663453231E-022   1.1962996917851263E-021  0.28776342500000002     
 chl2c          29  0.68676297499999994        3.7743217595736761E-002  0.68676297499999994        0.0000000000000000        9.3416936067240992E-016
 chl          29   8.2157433532193635E-022   1.1962996917851263E-021  0.68676297499999994     
 chl2c          30  0.38930277499999999        2.5380056985171612E-002  0.38930277499999999        0.0000000000000000        5.4351437240667917E-016
 chl          30   4.6572278974359439E-022   1.1962996917851263E-021  0.38930277499999999     
 chl2c          31  0.63559385000000002        3.7576959810037038E-002  0.63559385000000002        0.0000000000000000        9.3635922540461370E-016
 chl          31   7.6036072685552182E-022   1.1962996917851263E-021  0.63559385000000002     
 chl2c          32  0.24722667500000001        2.0893126428578448E-002  0.24722667500000001        0.0000000000000000        5.4365808198962345E-016
 chl          32   2.9575719510356159E-022   1.1962996917851263E-021  0.24722667500000001     
 chl2c          33  0.60343137499999999        3.7458922634011876E-002  0.60343137499999999        0.0000000000000000        9.2987519926133009E-016
 chl          33   7.2188476792597491E-022   1.1962996917851263E-021  0.60343137499999999     
 chl2c          34  0.38241020000000003        2.5350269098008315E-002  0.38241020000000003        0.0000000000000000        5.3925614937914656E-016
 chl          34   4.5747720439548851E-022   1.1962996917851263E-021  0.38241020000000003     
 chl2c          35  0.49574644999999995        2.5740370148566064E-002  0.49574644999999995        0.0000000000000000        5.4005110924675564E-016
 chl          35   5.9306132533857049E-022   1.1962996917851263E-021  0.49574644999999995     
 chl2c          36  0.69587337500000002        3.7770393924465726E-002  0.69587337500000002        0.0000000000000000        8.8068934110418058E-016
 chl          36   8.3247310403397558E-022   1.1962996917851263E-021  0.69587337500000002     
 chl2c          37  0.33194060000000003        2.1353674699533250E-002  0.33194060000000003        0.0000000000000000        5.3891137590896129E-016
 chl          37   3.9710043747096995E-022   1.1962996917851263E-021  0.33194060000000003     
 chl2c          38  0.38455722500000000        2.1543295686358745E-002  0.38455722500000000        0.0000000000000000        5.4369831770670892E-016
 chl          38   4.6004568974124344E-022   1.1962996917851263E-021  0.38455722500000000     
 chl2c          39  0.47091117500000002        2.5670077108751441E-002  0.47091117500000002        0.0000000000000000        5.4155674142913065E-016
 chl          39   5.6335089351067173E-022   1.1962996917851263E-021  0.47091117500000002     
 chl2c          40  0.66875547499999999        3.7687445774703773E-002  0.66875547499999999        0.0000000000000000        1.0477498652832469E-005
 chl          40   8.0003196862211575E-022   1.1962996917851263E-021  0.66875547499999999     
 chl2c          41  0.44304987499999998        2.5582381488167241E-002  0.44304987499999998        0.0000000000000000        6.0413304220875007E-006
 chl          41   5.3002042890793872E-022   1.1962996917851263E-021  0.44304987499999998     
 chl2c          42  0.76234377499999995        3.7949995630725070E-002  0.76234377499999995        0.0000000000000000        1.1112925013549295E-005
 chl          42   9.1199162306680958E-022   1.1962996917851263E-021  0.76234377499999995     
 chl2c          43  0.29539925000000000        2.1185090152268007E-002  0.29539925000000000        0.0000000000000000        5.4366016314360402E-016
 chl          43   3.5338603172855746E-022   1.1962996917851263E-021  0.29539925000000000     
 chl2c          44  0.62417262500000004        3.7536352708156646E-002  0.62417262500000004        0.0000000000000000        1.0707351097204645E-005
 chl          44   7.4669751890821325E-022   1.1962996917851263E-021  0.62417262500000004     
 chl2c          45  0.37662252499999999        4.6544927192009838E-002  0.37662252499999999        0.0000000000000000        2.6733552818496151E-019
 chl          45   4.5055341057683597E-022   1.1962996917851263E-021  0.37662252499999999     
 chl2c          46  0.51876034999999998        3.7083195475449568E-002  0.51876034999999998        0.0000000000000000        9.3633230130043893E-016
 chl          46   6.2059284681534418E-022   1.1962996917851263E-021  0.51876034999999998     
 chl2c          47  0.61962282499999999        3.7519784612651236E-002  0.61962282499999999        0.0000000000000000        4.9866780415117412E-006
 chl          47   7.4125459457052927E-022   1.1962996917851263E-021  0.61962282499999999     
 chl2c          48  0.71424949999999998        3.7823212136301673E-002  0.71424949999999998        0.0000000000000000        1.1126354473520247E-005
 chl          48   8.5445645670768058E-022   1.1962996917851263E-021  0.71424949999999998     
 chl2c          49  0.53276120000000005        3.7152990741888416E-002  0.53276120000000005        0.0000000000000000        5.4086838479595485E-006
 chl          49   6.3734205935507407E-022   1.1962996917851263E-021  0.53276120000000005     
 chl2c          50  0.38132569999999999        2.1533072915600981E-002  0.38132569999999999        0.0000000000000000        5.4081548172883147E-016
 chl          50   4.5617981737974754E-022   1.1962996917851263E-021  0.38132569999999999     
 chl2c          51  0.22275920000000002        2.0700971146093840E-002  0.22275920000000002        0.0000000000000000        5.4422290007422655E-016
 chl          51   2.6648676230230131E-022   1.1962996917851263E-021  0.22275920000000002     
 chl2c          52  0.63698869999999996        3.7581825176985564E-002  0.63698869999999996        0.0000000000000000        1.0466342096253439E-005
 chl          52   7.6202938548060827E-022   1.1962996917851263E-021  0.63698869999999996     
 chl2c          53  0.75269794999999995        3.7925801262726190E-002  0.75269794999999995        0.0000000000000000        1.0477592355848073E-005
 chl          53   9.0045232559229628E-022   1.1962996917851263E-021  0.75269794999999995     
 chl2c          54  0.51861124999999997        3.7082433371327092E-002  0.51861124999999997        0.0000000000000000        5.6910488925526476E-006
 chl          54   6.2041447853129907E-022   1.1962996917851263E-021  0.51861124999999997     
 chl2c          55  0.57808280000000001        3.7357235588660491E-002  0.57808280000000001        0.0000000000000000        9.3785076601066897E-016
 chl          55   6.9156027546628277E-022   1.1962996917851263E-021  0.57808280000000001     
 chl2c          56  0.61626080000000005        3.7507394187257688E-002  0.61626080000000005        0.0000000000000000        8.8068934110418058E-016
 chl          56   7.3723260509925541E-022   1.1962996917851263E-021  0.61626080000000005     
 chl2c          57  0.68163462500000005        3.7727617852646313E-002  0.68163462500000005        0.0000000000000000        9.3832806498680291E-016
 chl          57   8.1543929179757016E-022   1.1962996917851263E-021  0.68163462500000005     
 chl2c          58  0.69416802499999997        3.7765358178394853E-002  0.69416802499999997        0.0000000000000000        1.7354278745410826E-006
 chl          58   8.3043299435458979E-022   1.1962996917851263E-021  0.69416802499999997     
 chl2c          59  0.53705127500000005        3.7173699120809672E-002  0.53705127500000005        0.0000000000000000        1.0041431550393159E-005
 chl          59   6.4247427475530919E-022   1.1962996917851263E-021  0.53705127500000005     
 chl2c          60  0.64452155000000000        3.7607757740906807E-002  0.64452155000000000        0.0000000000000000        3.3838213568387092E-006
 chl          60   7.7104093161387184E-022   1.1962996917851263E-021  0.64452155000000000     
 chl2c          61  0.70794139999999994        3.7805373434125003E-002  0.70794139999999994        0.0000000000000000        9.3463967580600029E-016
 chl          61   8.4691007862193072E-022   1.1962996917851263E-021  0.70794139999999994     
 chl2c          62  0.76481592499999995        3.7956103087269030E-002  0.76481592499999995        0.0000000000000000        1.1032593579337245E-005
 chl          62   9.1494905534985626E-022   1.1962996917851263E-021  0.76481592499999995     
 chl2c          63  0.72597904999999996        3.7855601011927406E-002  0.72597904999999996        0.0000000000000000        8.8068934110418058E-016
 chl          63   8.6848851375745876E-022   1.1962996917851263E-021  0.72597904999999996     
 chl2c          64  0.48435739999999999        2.5708982294816416E-002  0.48435739999999999        0.0000000000000000        5.3701202357991760E-016
 chl          64   5.7943660833384513E-022   1.1962996917851263E-021  0.48435739999999999     
 chl2c          65  0.76379975000000000        3.7953597170552002E-002  0.76379975000000000        0.0000000000000000        9.4679863359764654E-006
 chl          65   9.1373340551055645E-022   1.1962996917851263E-021  0.76379975000000000     
 chl2c          66  0.35213202499999996        3.1840477731474713E-002  0.35213202499999996        0.0000000000000000        2.1985201785008217E-019
 chl          66   4.2125543297517236E-022   1.1962996917851263E-021  0.35213202499999996     
 chl2c          67  0.75736760000000003        3.7937587124568600E-002  0.75736760000000003        0.0000000000000000        5.6236730261263123E-006
 chl          67   9.0603862644804092E-022   1.1962996917851263E-021  0.75736760000000003     
 chl2c          68  0.72590779999999999        3.7855407263856986E-002  0.72590779999999999        0.0000000000000000        2.9243890971733936E-006
 chl          68   8.6840327740441905E-022   1.1962996917851263E-021  0.72590779999999999     
 chl2c          69  0.45524217500000003        2.1732330561541505E-002  0.45524217500000003        0.0000000000000000        5.3964195078796286E-016
 chl          69   5.4460607364009056E-022   1.1962996917851263E-021  0.45524217500000003     
 chl2c          70  0.48694062500000002        3.2658010878182209E-002  0.48694062500000002        0.0000000000000000        1.6837583755035065E-008
 chl          70   5.8252691960515679E-022   1.1962996917851263E-021  0.48694062500000002     
 chl2c          71  0.23986107500000001        4.3481058864416305E-002  0.23986107500000001        0.0000000000000000        1.5362805835605633E-009
 chl          71   2.8694573009374907E-022   1.1962996917851263E-021  0.23986107500000001     
 chl2c          72  0.62790522500000001        3.7549776402781669E-002  0.62790522500000001        0.0000000000000000        1.0432866702679144E-005
 chl          72   7.5116282713777039E-022   1.1962996917851263E-021  0.62790522500000001     
 chl2c          73  0.35362212500000001        3.1852614277819484E-002  0.35362212500000001        0.0000000000000000        2.7609909084074769E-019
 chl          73   4.2303803914590141E-022   1.1962996917851263E-021  0.35362212500000001     
 chl2c          74  0.64719590000000005        3.7616827685877569E-002  0.64719590000000005        0.0000000000000000        3.6041251338408669E-006
 chl          74   7.7424025569459749E-022   1.1962996917851263E-021  0.64719590000000005     
 chl2c          75  0.71554212500000003        3.7826830779512356E-002  0.71554212500000003        0.0000000000000000        8.8068934110418058E-016
 chl          75   8.5600282359677434E-022   1.1962996917851263E-021  0.71554212500000003     
 chl2c          76  0.55513977500000000        3.7257729557919804E-002  0.55513977500000000        0.0000000000000000        8.8068934110418058E-016
 chl          76   6.6411354173016439E-022   1.1962996917851263E-021  0.55513977500000000     
 chl2c          77  0.52973029999999999        3.7138172437479272E-002  0.52973029999999999        0.0000000000000000        6.5420863815884982E-006
 chl          77   6.3371619461924248E-022   1.1962996917851263E-021  0.52973029999999999     
 chl2c          78  0.45117492500000000        4.7515248899399322E-002  0.45117492500000000        0.0000000000000000        3.4392106037901724E-018
 chl          78   5.3974042371867743E-022   1.1962996917851263E-021  0.45117492500000000     
 prod   9.9797464391424204E-010   0.0000000000000000        10.000000000000000     
 dcdom   1.2355879624413587E-012  -6.8787763390568840E-023
 chl2c           1  0.60826437499999997        3.7477407714772232E-002  0.60826437499999997        0.0000000000000000        3.6254364088597981E-006
 chl           1   2.5266391416006502E-016   4.1538502753850252E-016  0.60826437499999997     
 chl2c           2  0.48302390000000001        3.2640259920490348E-002  0.48302390000000001        0.0000000000000000        1.8705299415347900E-019
 chl           2   2.0064089600325489E-016   4.1538502753850252E-016  0.48302390000000001     
 chl2c           3  0.75128689999999998        3.7922212503796585E-002  0.75128689999999998        0.0000000000000000        1.2839474329425452E-006
 chl           3   3.1207332964581620E-016   4.1538502753850252E-016  0.75128689999999998     
 chl2c           4  0.77318742499999993        3.7976509103863923E-002  0.77318742499999993        0.0000000000000000        9.1266968203285467E-016
 chl           4   3.2117047982604884E-016   4.1538502753850252E-016  0.77318742499999993     
 chl2c           5  0.48489679999999996        2.5710500362372445E-002  0.48489679999999996        0.0000000000000000        5.3956964183503835E-016
 chl           5   2.0141887062133173E-016   4.1538502753850252E-016  0.48489679999999996     
 chl2c           6  0.29222855000000003        3.1261039902252048E-002  0.29222855000000003        0.0000000000000000        2.8634643116029276E-008
 chl           6   1.2138736428928668E-016   4.1538502753850252E-016  0.29222855000000003     
 chl2c           7  0.22770740000000000        4.3064391842467263E-002  0.22770740000000000        0.0000000000000000        1.8252494722719600E-019
 chl           7   9.4586244619720810E-017   4.1538502753850252E-016  0.22770740000000000     
 chl2c           8  0.49578364999999996        4.7969800906495587E-002  0.49578364999999996        0.0000000000000000        1.9394174941699136E-019
 chl           8   2.0594110510838929E-016   4.1538502753850252E-016  0.49578364999999996     
 chl2c           9  0.28700202499999999        2.4803669054600401E-002  0.28700202499999999        0.0000000000000000        5.4184081042678104E-016
 chl           9   1.1921634405823099E-016   4.1538502753850252E-016  0.28700202499999999     
 chl2c          10  0.39094662499999999        2.5387016219684602E-002  0.39094662499999999        0.0000000000000000        5.4184867389951898E-016
 chl          10   1.6239337459170960E-016   4.1538502753850252E-016  0.39094662499999999     
 chl2c          11  0.49737575000000001        2.1820572217820047E-002  0.49737575000000001        0.0000000000000000        7.0017397929584133E-007
 chl          11   2.0660243961073336E-016   4.1538502753850252E-016  0.49737575000000001     
 chl2c          12  0.30768942500000002        4.5290941298723353E-002  0.30768942500000002        0.0000000000000000        2.0212908430150867E-009
 chl          12   1.2780958027693100E-016   4.1538502753850252E-016  0.30768942500000002     
 chl2c          13  0.75666275000000005        3.7935816987997487E-002  0.75666275000000005        0.0000000000000000        9.8176986370047773E-006
 chl          13   3.1430637724610905E-016   4.1538502753850252E-016  0.75666275000000005     
 chl2c          14  0.39804095000000000        4.6856526101924839E-002  0.39804095000000000        0.0000000000000000        2.3768757217671153E-018
 chl          14   1.6534025097720171E-016   4.1538502753850252E-016  0.39804095000000000     
 chl2c          15  0.25607262500000000        2.0954299823745293E-002  0.25607262500000000        0.0000000000000000        5.4323458438436399E-016
 chl          15   1.0636873438748163E-016   4.1538502753850252E-016  0.25607262500000000     
 chl2c          16  0.71433214999999994        3.7823443882273475E-002  0.71433214999999994        0.0000000000000000        9.5538474010034510E-006
 chl          16   2.9672287979938768E-016   4.1538502753850252E-016  0.71433214999999994     
 chl2c          17  0.62580860000000005        3.7542254757581245E-002  0.62580860000000005        0.0000000000000000        7.6691646371169572E-006
 chl          17   2.5995152254483174E-016   4.1538502753850252E-016  0.62580860000000005     
 chl2c          18  0.47925950000000000        2.5694475239060960E-002  0.47925950000000000        0.0000000000000000        5.4264471959075209E-016
 chl          18   1.9907722060558895E-016   4.1538502753850252E-016  0.47925950000000000     
 chl2c          19  0.63367130000000005        3.7570220750293731E-002  0.63367130000000005        0.0000000000000000        9.1266968203285467E-016
 chl          19   2.6321757040085869E-016   4.1538502753850252E-016  0.63367130000000005     
 chl2c          20  0.50678202500000002        3.7020645196759419E-002  0.50678202500000002        0.0000000000000000        9.8509802359102527E-006
 chl          20   2.1050966541064308E-016   4.1538502753850252E-016  0.50678202500000002     
 chl2c          21  0.71973185000000006        3.7838475073783531E-002  0.71973185000000006        0.0000000000000000        9.3329272539305717E-016
 chl          21   2.9896583433258740E-016   4.1538502753850252E-016  0.71973185000000006     
 chl2c          22  0.64616892500000001        3.7613353106285476E-002  0.64616892500000001        0.0000000000000000        9.1266968203285467E-016
 chl          22   2.6840889670564957E-016   4.1538502753850252E-016  0.64616892500000001     
 chl2c          23  0.41564179999999995        3.2286562315070731E-002  0.41564179999999995        0.0000000000000000        1.7782440049577400E-009
 chl          23   1.7265138053915273E-016   4.1538502753850252E-016  0.41564179999999995     
 chl2c          24  0.57597492500000003        3.7348402796863071E-002  0.57597492500000003        0.0000000000000000        9.2824422998013638E-016
 chl          24   2.3925136008261192E-016   4.1538502753850252E-016  0.57597492500000003     
 chl2c          25  0.31406487500000002        4.5426679235459781E-002  0.31406487500000002        0.0000000000000000        1.4344035558306545E-009
 chl          25   1.3045784675075135E-016   4.1538502753850252E-016  0.31406487500000002     
 chl2c          26  0.49427735000000000        4.7955660680174553E-002  0.49427735000000000        0.0000000000000000        1.6726741641625539E-009
 chl          26   2.0531541064140805E-016   4.1538502753850252E-016  0.49427735000000000     
 chl2c          27  0.30964730000000001        4.5333133499525620E-002  0.30964730000000001        0.0000000000000000        1.6577388937004150E-008
 chl          27   1.2862285223772296E-016   4.1538502753850252E-016  0.30964730000000001     
 chl2c          28  0.28776342500000002        3.1209236063453518E-002  0.28776342500000002        0.0000000000000000        2.3341710107801389E-008
 chl          28   1.1953261821819880E-016   4.1538502753850252E-016  0.28776342500000002     
 chl2c          29  0.68676297499999994        3.7743217595736761E-002  0.68676297499999994        0.0000000000000000        9.3416936067240992E-016
 chl          29   2.8527105728279889E-016   4.1538502753850252E-016  0.68676297499999994     
 chl2c          30  0.38930277499999999        2.5380056985171612E-002  0.38930277499999999        0.0000000000000000        3.0476312053639826E-006
 chl          30   1.6171054391419045E-016   4.1538502753850252E-016  0.38930277499999999     
 chl2c          31  0.63559385000000002        3.7576959810037038E-002  0.63559385000000002        0.0000000000000000        9.3635922540461370E-016
 chl          31   2.6401616888555283E-016   4.1538502753850252E-016  0.63559385000000002     
 chl2c          32  0.24722667500000001        2.0893126428578448E-002  0.24722667500000001        0.0000000000000000        5.4365808198962345E-016
 chl          32   1.0269425920312742E-016   4.1538502753850252E-016  0.24722667500000001     
 chl2c          33  0.60343137499999999        3.7458922634011876E-002  0.60343137499999999        0.0000000000000000        9.2987519926133009E-016
 chl          33   2.5065635832197145E-016   4.1538502753850252E-016  0.60343137499999999     
 chl2c          34  0.38241020000000003        2.5350269098008315E-002  0.38241020000000003        0.0000000000000000        5.3925614937914656E-016
 chl          34   1.5884747145800427E-016   4.1538502753850252E-016  0.38241020000000003     
 chl2c          35  0.49574644999999995        2.5740370148566064E-002  0.49574644999999995        0.0000000000000000        5.4005110924675564E-016
 chl          35   2.0592565278536483E-016   4.1538502753850252E-016  0.49574644999999995     
 chl2c          36  0.69587337500000002        3.7770393924465726E-002  0.69587337500000002        0.0000000000000000        9.1266968203285467E-016
 chl          36   2.8905538103768568E-016   4.1538502753850252E-016  0.69587337500000002     
 chl2c          37  0.33194060000000003        2.1353674699533250E-002  0.33194060000000003        0.0000000000000000        5.3891137590896129E-016
 chl          37   1.3788315527214706E-016   4.1538502753850252E-016  0.33194060000000003     
 chl2c          38  0.38455722500000000        2.1543295686358745E-002  0.38455722500000000        0.0000000000000000        5.4369831770670892E-016
 chl          38   1.5973931349675510E-016   4.1538502753850252E-016  0.38455722500000000     
 chl2c          39  0.47091117500000002        2.5670077108751441E-002  0.47091117500000002        0.0000000000000000        5.4155674142913065E-016
 chl          39   1.9560945139556358E-016   4.1538502753850252E-016  0.47091117500000002     
 chl2c          40  0.66875547499999999        3.7687445774703773E-002  0.66875547499999999        0.0000000000000000        9.5550643833812803E-006
 chl          40   2.7779101139939935E-016   4.1538502753850252E-016  0.66875547499999999     
 chl2c          41  0.44304987499999998        2.5582381488167241E-002  0.44304987499999998        0.0000000000000000        2.2001993942519629E-006
 chl          41   1.8403628452780510E-016   4.1538502753850252E-016  0.44304987499999998     
 chl2c          42  0.76234377499999995        3.7949995630725070E-002  0.76234377499999995        0.0000000000000000        9.7003391712430205E-006
 chl          42   3.1666618997218094E-016   4.1538502753850252E-016  0.76234377499999995     
 chl2c          43  0.29539925000000000        2.1185090152268007E-002  0.29539925000000000        0.0000000000000000        5.4366016314360402E-016
 chl          43   1.2270442559610298E-016   4.1538502753850252E-016  0.29539925000000000     
 chl2c          44  0.62417262500000004        3.7536352708156646E-002  0.62417262500000004        0.0000000000000000        9.7800258342230067E-006
 chl          44   2.5927196302440442E-016   4.1538502753850252E-016  0.62417262500000004     
 chl2c          45  0.37662252499999999        4.6544927192009838E-002  0.37662252499999999        0.0000000000000000        2.4582459056705155E-019
 chl          45   1.5644335791874534E-016   4.1538502753850252E-016  0.37662252499999999     
 chl2c          46  0.51876034999999998        3.7083195475449568E-002  0.51876034999999998        0.0000000000000000        9.3633230130043893E-016
 chl          46   2.1548528227063321E-016   4.1538502753850252E-016  0.51876034999999998     
 chl2c          47  0.61962282499999999        3.7519784612651236E-002  0.61962282499999999        0.0000000000000000        8.7501651112896368E-006
 chl          47   2.5738204422610973E-016   4.1538502753850252E-016  0.61962282499999999     
 chl2c          48  0.71424949999999998        3.7823212136301673E-002  0.71424949999999998        0.0000000000000000        9.8376110750212073E-006
 chl          48   2.9668854822686163E-016   4.1538502753850252E-016  0.71424949999999998     
 chl2c          49  0.53276120000000005        3.7152990741888416E-002  0.53276120000000005        0.0000000000000000        8.8749122949889951E-006
 chl          49   2.2130102573344567E-016   4.1538502753850252E-016  0.53276120000000005     
 chl2c          50  0.38132569999999999        2.1533072915600981E-002  0.38132569999999999        0.0000000000000000        5.4081548172883147E-016
 chl          50   1.5839698639563876E-016   4.1538502753850252E-016  0.38132569999999999     
 chl2c          51  0.22275920000000002        2.0700971146093840E-002  0.22275920000000002        0.0000000000000000        5.4422290007422655E-016
 chl          51   9.2530836426454793E-017   4.1538502753850252E-016  0.22275920000000002     
 chl2c          52  0.63698869999999996        3.7581825176985564E-002  0.63698869999999996        0.0000000000000000        9.6057451716661142E-006
 chl          52   2.6459556869121488E-016   4.1538502753850252E-016  0.63698869999999996     
 chl2c          53  0.75269794999999995        3.7925801262726190E-002  0.75269794999999995        0.0000000000000000        9.3717325700571372E-006
 chl          53   3.1265945868892435E-016   4.1538502753850252E-016  0.75269794999999995     
 chl2c          54  0.51861124999999997        3.7082433371327092E-002  0.51861124999999997        0.0000000000000000        8.9324965808986701E-006
 chl          54   2.1542334836302719E-016   4.1538502753850252E-016  0.51861124999999997     
 chl2c          55  0.57808280000000001        3.7357235588660491E-002  0.57808280000000001        0.0000000000000000        9.3785076601066897E-016
 chl          55   2.4012693979753464E-016   4.1538502753850252E-016  0.57808280000000001     
 chl2c          56  0.61626080000000005        3.7507394187257688E-002  0.61626080000000005        0.0000000000000000        9.1266968203285467E-016
 chl          56   2.5598550937889960E-016   4.1538502753850252E-016  0.61626080000000005     
 chl2c          57  0.68163462500000005        3.7727617852646313E-002  0.68163462500000005        0.0000000000000000        9.3832806498680291E-016
 chl          57   2.8314081747682184E-016   4.1538502753850252E-016  0.68163462500000005     
 chl2c          58  0.69416802499999997        3.7765358178394853E-002  0.69416802499999997        0.0000000000000000        9.1266968203285467E-016
 chl          58   2.8834700418097289E-016   4.1538502753850252E-016  0.69416802499999997     
 chl2c          59  0.53705127500000005        3.7173699120809672E-002  0.53705127500000005        0.0000000000000000        4.5105237739782477E-006
 chl          59   2.2308305865546292E-016   4.1538502753850252E-016  0.53705127500000005     
 chl2c          60  0.64452155000000000        3.7607757740906807E-002  0.64452155000000000        0.0000000000000000        9.2749835364997745E-016
 chl          60   2.6772460179590831E-016   4.1538502753850252E-016  0.64452155000000000     
 chl2c          61  0.70794139999999994        3.7805373434125003E-002  0.70794139999999994        0.0000000000000000        1.3883779273006270E-006
 chl          61   2.9406825793464602E-016   4.1538502753850252E-016  0.70794139999999994     
 chl2c          62  0.76481592499999995        3.7956103087269030E-002  0.76481592499999995        0.0000000000000000        9.7487174220923421E-006
 chl          62   3.1769308406801027E-016   4.1538502753850252E-016  0.76481592499999995     
 chl2c          63  0.72597904999999996        3.7855601011927406E-002  0.72597904999999996        0.0000000000000000        9.1266968203285467E-016
 chl          63   3.0156082767662587E-016   4.1538502753850252E-016  0.72597904999999996     
 chl2c          64  0.48435739999999999        2.5708982294816416E-002  0.48435739999999999        0.0000000000000000        5.3701202357991760E-016
 chl          64   2.0119481193747748E-016   4.1538502753850252E-016  0.48435739999999999     
 chl2c          65  0.76379975000000000        3.7953597170552002E-002  0.76379975000000000        0.0000000000000000        4.5085760414890990E-006
 chl          65   3.1727098018765132E-016   4.1538502753850252E-016  0.76379975000000000     
 chl2c          66  0.35213202499999996        3.1840477731474713E-002  0.35213202499999996        0.0000000000000000        2.0216040046627358E-019
 chl          66   1.4627037090181365E-016   4.1538502753850252E-016  0.35213202499999996     
 chl2c          67  0.75736760000000003        3.7937587124568600E-002  0.75736760000000003        0.0000000000000000        8.9453218150206157E-006
 chl          67   3.1459916138276956E-016   4.1538502753850252E-016  0.75736760000000003     
 chl2c          68  0.72590779999999999        3.7855407263856986E-002  0.72590779999999999        0.0000000000000000        9.1266968203285467E-016
 chl          68   3.0153123149341380E-016   4.1538502753850252E-016  0.72590779999999999     
 chl2c          69  0.45524217500000003        2.1732330561541505E-002  0.45524217500000003        0.0000000000000000        5.3964195078796286E-016
 chl          69   1.8910078339906279E-016   4.1538502753850252E-016  0.45524217500000003     
 chl2c          70  0.48694062500000002        3.2658010878182209E-002  0.48694062500000002        0.0000000000000000        2.8931413252535636E-008
 chl          70   2.0226784492524064E-016   4.1538502753850252E-016  0.48694062500000002     
 chl2c          71  0.23986107500000001        4.3481058864416305E-002  0.23986107500000001        0.0000000000000000        2.2607223252329583E-019
 chl          71   9.9634699244289824E-017   4.1538502753850252E-016  0.23986107500000001     
 chl2c          72  0.62790522500000001        3.7549776402781669E-002  0.62790522500000001        0.0000000000000000        9.6116456978378779E-006
 chl          72   2.6082242917819461E-016   4.1538502753850252E-016  0.62790522500000001     
 chl2c          73  0.35362212500000001        3.1852614277819484E-002  0.35362212500000001        0.0000000000000000        2.5388332520671403E-019
 chl          73   1.4688933613134879E-016   4.1538502753850252E-016  0.35362212500000001     
 chl2c          74  0.64719590000000005        3.7616827685877569E-002  0.64719590000000005        0.0000000000000000        9.3433171110298633E-016
 chl          74   2.6883548674430593E-016   4.1538502753850252E-016  0.64719590000000005     
 chl2c          75  0.71554212500000003        3.7826830779512356E-002  0.71554212500000003        0.0000000000000000        9.1266968203285467E-016
 chl          75   2.9722548529808364E-016   4.1538502753850252E-016  0.71554212500000003     
 chl2c          76  0.55513977500000000        3.7257729557919804E-002  0.55513977500000000        0.0000000000000000        9.1266968203285467E-016
 chl          76   2.3059675072609310E-016   4.1538502753850252E-016  0.55513977500000000     
 chl2c          77  0.52973029999999999        3.7138172437479272E-002  0.52973029999999999        0.0000000000000000        9.2657778404485645E-016
 chl          77   2.2004203525347920E-016   4.1538502753850252E-016  0.52973029999999999     
 chl2c          78  0.45117492500000000        4.7515248899399322E-002  0.45117492500000000        0.0000000000000000        2.9898231856873843E-018
 chl          78   1.8741130864580682E-016   4.1538502753850252E-016  0.45117492500000000     
 prod   9.1763758698357533E-010   0.0000000000000000        10.000000000000000     
 dcdom   1.1386754908503799E-012  -1.0759361224834761E-021
 chl2c           1  0.60826437499999997        3.7477407714772232E-002  0.60826437499999997        0.0000000000000000        9.3035873598120987E-016
 chl           1   1.5791550220977857E-010   2.5961655605718908E-010  0.60826437499999997     
 chl2c           2  0.48302390000000001        3.2640259920490348E-002  0.48302390000000001        0.0000000000000000        1.5161127863289606E-019
 chl           2   1.2540100141131210E-010   2.5961655605718908E-010  0.48302390000000001     
 chl2c           3  0.75128689999999998        3.7922212503796585E-002  0.75128689999999998        0.0000000000000000        5.9666199355781277E-006
 chl           3   1.9504651758888181E-010   2.5961655605718908E-010  0.75128689999999998     
 chl2c           4  0.77318742499999993        3.7976509103863923E-002  0.77318742499999993        0.0000000000000000        9.3035873598120987E-016
 chl           4   2.0073225646522615E-010   2.5961655605718908E-010  0.77318742499999993     
 chl2c           5  0.48489679999999996        2.5710500362372445E-002  0.48489679999999996        0.0000000000000000        5.3956964183503835E-016
 chl           5   1.2588723725915159E-010   2.5961655605718908E-010  0.48489679999999996     
 chl2c           6  0.29222855000000003        3.1261039902252048E-002  0.29222855000000003        0.0000000000000000        4.2453100826380833E-009
 chl           6   7.5867369732586091E-011   2.5961655605718908E-010  0.29222855000000003     
 chl2c           7  0.22770740000000000        4.3064391842467263E-002  0.22770740000000000        0.0000000000000000        1.4794094938156095E-019
 chl           7   5.9116610976736773E-011   2.5961655605718908E-010  0.22770740000000000     
 chl2c           8  0.49578364999999996        4.7969800906495587E-002  0.49578364999999996        0.0000000000000000        1.5719516493784220E-019
 chl           8   1.2871364376246281E-010   2.5961655605718908E-010  0.49578364999999996     
 chl2c           9  0.28700202499999999        2.4803669054600401E-002  0.28700202499999999        0.0000000000000000        5.4184081042678104E-016
 chl           9   7.4510477311939277E-011   2.5961655605718908E-010  0.28700202499999999     
 chl2c          10  0.39094662499999999        2.5387016219684602E-002  0.39094662499999999        0.0000000000000000        5.4184867389951898E-016
 chl          10   1.0149621638468138E-010   2.5961655605718908E-010  0.39094662499999999     
 chl2c          11  0.49737575000000001        2.1820572217820047E-002  0.49737575000000001        0.0000000000000000        4.1497651202381232E-006
 chl          11   1.2912697928136147E-010   2.5961655605718908E-010  0.49737575000000001     
 chl2c          12  0.30768942500000002        4.5290941298723353E-002  0.30768942500000002        0.0000000000000000        1.2696311422136629E-009
 chl          12   7.9881268853716781E-011   2.5961655605718908E-010  0.30768942500000002     
 chl2c          13  0.75666275000000005        3.7935816987997487E-002  0.75666275000000005        0.0000000000000000        8.4566823801040028E-006
 chl          13   1.9644217725176186E-010   2.5961655605718908E-010  0.75666275000000005     
 chl2c          14  0.39804095000000000        4.6856526101924839E-002  0.39804095000000000        0.0000000000000000        1.7708960971716983E-018
 chl          14   1.0333802060873180E-010   2.5961655605718908E-010  0.39804095000000000     
 chl2c          15  0.25607262500000000        2.0954299823745293E-002  0.25607262500000000        0.0000000000000000        5.4323458438436399E-016
 chl          15   6.6480693003024061E-011   2.5961655605718908E-010  0.25607262500000000     
 chl2c          16  0.71433214999999994        3.7823443882273475E-002  0.71433214999999994        0.0000000000000000        7.5472603240262049E-006
 chl          16   1.8545245266392738E-010   2.5961655605718908E-010  0.71433214999999994     
 chl2c          17  0.62580860000000005        3.7542254757581245E-002  0.62580860000000005        0.0000000000000000        8.5511248015125742E-006
 chl          17   1.6247027348297104E-010   2.5961655605718908E-010  0.62580860000000005     
 chl2c          18  0.47925950000000000        2.5694475239060960E-002  0.47925950000000000        0.0000000000000000        5.4264471959075209E-016
 chl          18   1.2442370084769041E-010   2.5961655605718908E-010  0.47925950000000000     
 chl2c          19  0.63367130000000005        3.7570220750293731E-002  0.63367130000000005        0.0000000000000000        9.2840804349270472E-016
 chl          19   1.6451156057828189E-010   2.5961655605718908E-010  0.63367130000000005     
 chl2c          20  0.50678202500000002        3.7020645196759419E-002  0.50678202500000002        0.0000000000000000        8.6734411273667784E-006
 chl          20   1.3156900400218829E-010   2.5961655605718908E-010  0.50678202500000002     
 chl2c          21  0.71973185000000006        3.7838475073783531E-002  0.71973185000000006        0.0000000000000000        9.3329272539305717E-016
 chl          21   1.8685430418166942E-010   2.5961655605718908E-010  0.71973185000000006     
 chl2c          22  0.64616892500000001        3.7613353106285476E-002  0.64616892500000001        0.0000000000000000        9.3035873598120987E-016
 chl          22   1.6775615093967610E-010   2.5961655605718908E-010  0.64616892500000001     
 chl2c          23  0.41564179999999995        3.2286562315070731E-002  0.41564179999999995        0.0000000000000000        2.1640319112070871E-019
 chl          23   1.0790749266941096E-010   2.5961655605718908E-010  0.41564179999999995     
 chl2c          24  0.57597492500000003        3.7348402796863071E-002  0.57597492500000003        0.0000000000000000        3.9820257008220715E-006
 chl          24   1.4953262640379778E-010   2.5961655605718908E-010  0.57597492500000003     
 chl2c          25  0.31406487500000002        4.5426679235459781E-002  0.31406487500000002        0.0000000000000000        1.6483507687471018E-019
 chl          25   8.1536441226031591E-011   2.5961655605718908E-010  0.31406487500000002     
 chl2c          26  0.49427735000000000        4.7955660680174553E-002  0.49427735000000000        0.0000000000000000        1.3968795916338989E-009
 chl          26   1.2832258334407387E-010   2.5961655605718908E-010  0.49427735000000000     
 chl2c          27  0.30964730000000001        4.5333133499525620E-002  0.30964730000000001        0.0000000000000000        1.6171661444938842E-008
 chl          27   8.0389565618407251E-011   2.5961655605718908E-010  0.30964730000000001     
 chl2c          28  0.28776342500000002        3.1209236063453518E-002  0.28776342500000002        0.0000000000000000        1.6306867798929859E-008
 chl          28   7.4708149357721226E-011   2.5961655605718908E-010  0.28776342500000002     
 chl2c          29  0.68676297499999994        3.7743217595736761E-002  0.68676297499999994        0.0000000000000000        9.3416936067240992E-016
 chl          29   1.7829503839708944E-010   2.5961655605718908E-010  0.68676297499999994     
 chl2c          30  0.38930277499999999        2.5380056985171612E-002  0.38930277499999999        0.0000000000000000        4.9026722863479426E-006
 chl          30   1.0106944570900676E-010   2.5961655605718908E-010  0.38930277499999999     
 chl2c          31  0.63559385000000002        3.7576959810037038E-002  0.63559385000000002        0.0000000000000000        9.3635922540461370E-016
 chl          31   1.6501068638812964E-010   2.5961655605718908E-010  0.63559385000000002     
 chl2c          32  0.24722667500000001        2.0893126428578448E-002  0.24722667500000001        0.0000000000000000        5.4365808198962345E-016
 chl          32   6.4184137928969964E-011   2.5961655605718908E-010  0.24722667500000001     
 chl2c          33  0.60343137499999999        3.7458922634011876E-002  0.60343137499999999        0.0000000000000000        9.2987519926133009E-016
 chl          33   1.5666077539435419E-010   2.5961655605718908E-010  0.60343137499999999     
 chl2c          34  0.38241020000000003        2.5350269098008315E-002  0.38241020000000003        0.0000000000000000        5.3925614937914656E-016
 chl          34   9.9280019125140895E-011   2.5961655605718908E-010  0.38241020000000003     
 chl2c          35  0.49574644999999995        2.5740370148566064E-002  0.49574644999999995        0.0000000000000000        2.6438558103275923E-006
 chl          35   1.2870398602657746E-010   2.5961655605718908E-010  0.49574644999999995     
 chl2c          36  0.69587337500000002        3.7770393924465726E-002  0.69587337500000002        0.0000000000000000        4.1336840068141136E-006
 chl          36   1.8066024906939286E-010   2.5961655605718908E-010  0.69587337500000002     
 chl2c          37  0.33194060000000003        2.1353674699533250E-002  0.33194060000000003        0.0000000000000000        5.3891137590896129E-016
 chl          37   8.6177275387556984E-011   2.5961655605718908E-010  0.33194060000000003     
 chl2c          38  0.38455722500000000        2.1543295686358745E-002  0.38455722500000000        0.0000000000000000        1.7435304597942697E-006
 chl          38   9.9837422361409568E-011   2.5961655605718908E-010  0.38455722500000000     
 chl2c          39  0.47091117500000002        2.5670077108751441E-002  0.47091117500000002        0.0000000000000000        2.9643781811656079E-007
 chl          39   1.2225633746234428E-010   2.5961655605718908E-010  0.47091117500000002     
 chl2c          40  0.66875547499999999        3.7687445774703773E-002  0.66875547499999999        0.0000000000000000        7.5578007185848883E-006
 chl          40   1.7361999326388960E-010   2.5961655605718908E-010  0.66875547499999999     
 chl2c          41  0.44304987499999998        2.5582381488167241E-002  0.44304987499999998        0.0000000000000000        5.3742563721902819E-016
 chl          41   1.1502308270906810E-010   2.5961655605718908E-010  0.44304987499999998     
 chl2c          42  0.76234377499999995        3.7949995630725070E-002  0.76234377499999995        0.0000000000000000        7.0424582438234839E-006
 chl          42   1.9791706539713663E-010   2.5961655605718908E-010  0.76234377499999995     
 chl2c          43  0.29539925000000000        2.1185090152268007E-002  0.29539925000000000        0.0000000000000000        5.4366016314360402E-016
 chl          43   7.6690535946876608E-011   2.5961655605718908E-010  0.29539925000000000     
 chl2c          44  0.62417262500000004        3.7536352708156646E-002  0.62417262500000004        0.0000000000000000        8.6466903940455926E-006
 chl          44   1.6204554728767537E-010   2.5961655605718908E-010  0.62417262500000004     
 chl2c          45  0.37662252499999999        4.6544927192009838E-002  0.37662252499999999        0.0000000000000000        1.9925120127813452E-019
 chl          45   9.7777442874062593E-011   2.5961655605718908E-010  0.37662252499999999     
 chl2c          46  0.51876034999999998        3.7083195475449568E-002  0.51876034999999998        0.0000000000000000        9.3633230130043893E-016
 chl          46   1.3467877548602203E-010   2.5961655605718908E-010  0.51876034999999998     
 chl2c          47  0.61962282499999999        3.7519784612651236E-002  0.61962282499999999        0.0000000000000000        8.7155020779145140E-006
 chl          47   1.6086434388092634E-010   2.5961655605718908E-010  0.61962282499999999     
 chl2c          48  0.71424949999999998        3.7823212136301673E-002  0.71424949999999998        0.0000000000000000        8.0671108056829774E-006
 chl          48   1.8543099535556926E-010   2.5961655605718908E-010  0.71424949999999998     
 chl2c          49  0.53276120000000005        3.7152990741888416E-002  0.53276120000000005        0.0000000000000000        8.6958168037892144E-006
 chl          49   1.3831362794489533E-010   2.5961655605718908E-010  0.53276120000000005     
 chl2c          50  0.38132569999999999        2.1533072915600981E-002  0.38132569999999999        0.0000000000000000        5.4081548172883147E-016
 chl          50   9.8998464970096859E-011   2.5961655605718908E-010  0.38132569999999999     
 chl2c          51  0.22275920000000002        2.0700971146093840E-002  0.22275920000000002        0.0000000000000000        2.0642619598049164E-006
 chl          51   5.7831976334054595E-011   2.5961655605718908E-010  0.22275920000000002     
 chl2c          52  0.63698869999999996        3.7581825176985564E-002  0.63698869999999996        0.0000000000000000        8.1996511213780711E-006
 chl          52   1.6537281254134599E-010   2.5961655605718908E-010  0.63698869999999996     
 chl2c          53  0.75269794999999995        3.7925801262726190E-002  0.75269794999999995        0.0000000000000000        6.4625016395362194E-006
 chl          53   1.9541284953030628E-010   2.5961655605718908E-010  0.75269794999999995     
 chl2c          54  0.51861124999999997        3.7082433371327092E-002  0.51861124999999997        0.0000000000000000        8.6587671799548268E-006
 chl          54   1.3464006665751389E-010   2.5961655605718908E-010  0.51861124999999997     
 chl2c          55  0.57808280000000001        3.7357235588660491E-002  0.57808280000000001        0.0000000000000000        9.3785076601066897E-016
 chl          55   1.5007986565189683E-010   2.5961655605718908E-010  0.57808280000000001     
 chl2c          56  0.61626080000000005        3.7507394187257688E-002  0.61626080000000005        0.0000000000000000        3.0164853053024045E-006
 chl          56   1.5999150652904819E-010   2.5961655605718908E-010  0.61626080000000005     
 chl2c          57  0.68163462500000005        3.7727617852646313E-002  0.68163462500000005        0.0000000000000000        9.3832806498680291E-016
 chl          57   1.7696363383183358E-010   2.5961655605718908E-010  0.68163462500000005     
 chl2c          58  0.69416802499999997        3.7765358178394853E-002  0.69416802499999997        0.0000000000000000        9.3035873598120987E-016
 chl          58   1.8021751197552071E-010   2.5961655605718908E-010  0.69416802499999997     
 chl2c          59  0.53705127500000005        3.7173699120809672E-002  0.53705127500000005        0.0000000000000000        9.3909862132222778E-016
 chl          59   1.3942740244162239E-010   2.5961655605718908E-010  0.53705127500000005     
 chl2c          60  0.64452155000000000        3.7607757740906807E-002  0.64452155000000000        0.0000000000000000        9.2749835364997745E-016
 chl          60   1.6732846511564139E-010   2.5961655605718908E-010  0.64452155000000000     
 chl2c          61  0.70794139999999994        3.7805373434125003E-002  0.70794139999999994        0.0000000000000000        6.0477829426713330E-006
 chl          61   1.8379330815830491E-010   2.5961655605718908E-010  0.70794139999999994     
 chl2c          62  0.76481592499999995        3.7956103087269030E-002  0.76481592499999995        0.0000000000000000        7.9290618102670485E-006
 chl          62   1.9855887646619339E-010   2.5961655605718908E-010  0.76481592499999995     
 chl2c          63  0.72597904999999996        3.7855601011927406E-002  0.72597904999999996        0.0000000000000000        9.2795665494412045E-016
 chl          63   1.8847618073066985E-010   2.5961655605718908E-010  0.72597904999999996     
 chl2c          64  0.48435739999999999        2.5708982294816416E-002  0.48435739999999999        0.0000000000000000        3.3471624293575520E-006
 chl          64   1.2574720008881435E-010   2.5961655605718908E-010  0.48435739999999999     
 chl2c          65  0.76379975000000000        3.7953597170552002E-002  0.76379975000000000        0.0000000000000000        9.3035873598120987E-016
 chl          65   1.9829506061234200E-010   2.5961655605718908E-010  0.76379975000000000     
 chl2c          66  0.35213202499999996        3.1840477731474713E-002  0.35213202499999996        0.0000000000000000        7.9322384419602485E-010
 chl          66   9.1419303607943989E-011   2.5961655605718908E-010  0.35213202499999996     
 chl2c          67  0.75736760000000003        3.7937587124568600E-002  0.75736760000000003        0.0000000000000000        8.6990797603304162E-006
 chl          67   1.9662516798129876E-010   2.5961655605718908E-010  0.75736760000000003     
 chl2c          68  0.72590779999999999        3.7855407263856986E-002  0.72590779999999999        0.0000000000000000        9.3035873598120987E-016
 chl          68   1.8845768305105080E-010   2.5961655605718908E-010  0.72590779999999999     
 chl2c          69  0.45524217500000003        2.1732330561541505E-002  0.45524217500000003        0.0000000000000000        5.3964195078796286E-016
 chl          69   1.1818840564548420E-010   2.5961655605718908E-010  0.45524217500000003     
 chl2c          70  0.48694062500000002        3.2658010878182209E-002  0.48694062500000002        0.0000000000000000        2.0173860039248083E-008
 chl          70   1.2641784806683520E-010   2.5961655605718908E-010  0.48694062500000002     
 chl2c          71  0.23986107500000001        4.3481058864416305E-002  0.23986107500000001        0.0000000000000000        1.8323983705062687E-019
 chl          71   6.2271906223675141E-011   2.5961655605718908E-010  0.23986107500000001     
 chl2c          72  0.62790522500000001        3.7549776402781669E-002  0.62790522500000001        0.0000000000000000        8.4384602747299555E-006
 chl          72   1.6301459204481442E-010   2.5961655605718908E-010  0.62790522500000001     
 chl2c          73  0.35362212500000001        3.1852614277819484E-002  0.35362212500000001        0.0000000000000000        1.5432946225410268E-010
 chl          73   9.1806158238124822E-011   2.5961655605718908E-010  0.35362212500000001     
 chl2c          74  0.64719590000000005        3.7616827685877569E-002  0.64719590000000005        0.0000000000000000        9.3433171110298633E-016
 chl          74   1.6802277065233295E-010   2.5961655605718908E-010  0.64719590000000005     
 chl2c          75  0.71554212500000003        3.7826830779512356E-002  0.71554212500000003        0.0000000000000000        4.6790533024750949E-006
 chl          75   1.8576658220634271E-010   2.5961655605718908E-010  0.71554212500000003     
 chl2c          76  0.55513977500000000        3.7257729557919804E-002  0.55513977500000000        0.0000000000000000        9.3035873598120987E-016
 chl          76   1.4412347651586282E-010   2.5961655605718908E-010  0.55513977500000000     
 chl2c          77  0.52973029999999999        3.7138172437479272E-002  0.52973029999999999        0.0000000000000000        9.2657778404485645E-016
 chl          77   1.3752675612514157E-010   2.5961655605718908E-010  0.52973029999999999     
 chl2c          78  0.45117492500000000        4.7515248899399322E-002  0.45117492500000000        0.0000000000000000        2.2281327800539310E-018
 chl          78   1.1713248020786058E-010   2.5961655605718908E-010  0.45117492500000000     
 prod   7.4372110217994386E-010   0.0000000000000000        10.000000000000000     
 dcdom   9.2650979391111578E-013  -6.7246236106632592E-016
 chl2c           1  0.60826437499999997        3.7477407714772232E-002  0.60826437499999997        0.0000000000000000        9.3573127378285851E-016
 chl           1   7.5009492555306408E-010   1.2331725420431931E-009  0.60826437499999997     
 chl2c           2  0.48302390000000001        3.2640259920490348E-002  0.48302390000000001        0.0000000000000000        1.1021213560063384E-019
 chl           2   5.9565181063061707E-010   1.2331725420431931E-009  0.48302390000000001     
 chl2c           3  0.75128689999999998        3.7922212503796585E-002  0.75128689999999998        0.0000000000000000        7.1681822236094587E-006
 chl           3   9.2646637627675016E-010   1.2331725420431931E-009  0.75128689999999998     
 chl2c           4  0.77318742499999993        3.7976509103863923E-002  0.77318742499999993        0.0000000000000000        9.3825302901426669E-016
 chl           4   9.5347350236308057E-010   1.2331725420431931E-009  0.77318742499999993     
 chl2c           5  0.48489679999999996        2.5710500362372445E-002  0.48489679999999996        0.0000000000000000        5.3956964183503835E-016
 chl           5   5.9796141948460980E-010   1.2331725420431931E-009  0.48489679999999996     
 chl2c           6  0.29222855000000003        3.1261039902252048E-002  0.29222855000000003        0.0000000000000000        1.5869299315312541E-018
 chl           6   3.6036822386109639E-010   1.2331725420431931E-009  0.29222855000000003     
 chl2c           7  0.22770740000000000        4.3064391842467263E-002  0.22770740000000000        0.0000000000000000        1.0754383488919236E-019
 chl           7   2.8080251330004622E-010   1.2331725420431931E-009  0.22770740000000000     
 chl2c           8  0.49578364999999996        4.7969800906495587E-002  0.49578364999999996        0.0000000000000000        1.1427159596832055E-019
 chl           8   6.1138678397395270E-010   1.2331725420431931E-009  0.49578364999999996     
 chl2c           9  0.28700202499999999        2.4803669054600401E-002  0.28700202499999999        0.0000000000000000        5.4184081042678104E-016
 chl           9   3.5392301674079404E-010   1.2331725420431931E-009  0.28700202499999999     
 chl2c          10  0.39094662499999999        2.5387016219684602E-002  0.39094662499999999        0.0000000000000000        5.4184867389951898E-016
 chl          10   4.8210464335445697E-010   1.2331725420431931E-009  0.39094662499999999     
 chl2c          11  0.49737575000000001        2.1820572217820047E-002  0.49737575000000001        0.0000000000000000        4.5880261369873701E-006
 chl          11   6.1335011797813967E-010   1.2331725420431931E-009  0.49737575000000001     
 chl2c          12  0.30768942500000002        4.5290941298723353E-002  0.30768942500000002        0.0000000000000000        5.8816116249351110E-010
 chl          12   3.7943415038705842E-010   1.2331725420431931E-009  0.30768942500000002     
 chl2c          13  0.75666275000000005        3.7935816987997487E-002  0.75666275000000005        0.0000000000000000        7.2643872704838820E-006
 chl          13   9.3309572688689317E-010   1.2331725420431931E-009  0.75666275000000005     
 chl2c          14  0.39804095000000000        4.6856526101924839E-002  0.39804095000000000        0.0000000000000000        1.5742557557549455E-009
 chl          14   4.9085317014878753E-010   1.2331725420431931E-009  0.39804095000000000     
 chl2c          15  0.25607262500000000        2.0954299823745293E-002  0.25607262500000000        0.0000000000000000        5.4323458438436399E-016
 chl          15   3.1578172991892335E-010   1.2331725420431931E-009  0.25607262500000000     
 chl2c          16  0.71433214999999994        3.7823443882273475E-002  0.71433214999999994        0.0000000000000000        5.5526776832087774E-006
 chl          16   8.8089479327867944E-010   1.2331725420431931E-009  0.71433214999999994     
 chl2c          17  0.62580860000000005        3.7542254757581245E-002  0.62580860000000005        0.0000000000000000        8.2298511807965109E-006
 chl          17   7.7172998209449193E-010   1.2331725420431931E-009  0.62580860000000005     
 chl2c          18  0.47925950000000000        2.5694475239060960E-002  0.47925950000000000        0.0000000000000000        1.3386197619002704E-006
 chl          18   5.9100965591334969E-010   1.2331725420431931E-009  0.47925950000000000     
 chl2c          19  0.63367130000000005        3.7570220750293731E-002  0.63367130000000005        0.0000000000000000        9.2840804349270472E-016
 chl          19   7.8142604784081494E-010   1.2331725420431931E-009  0.63367130000000005     
 chl2c          20  0.50678202500000002        3.7020645196759419E-002  0.50678202500000002        0.0000000000000000        7.8266874114330271E-006
 chl          20   6.2494967803104712E-010   1.2331725420431931E-009  0.50678202500000002     
 chl2c          21  0.71973185000000006        3.7838475073783531E-002  0.71973185000000006        0.0000000000000000        9.3329272539305717E-016
 chl          21   8.8755355505395029E-010   1.2331725420431931E-009  0.71973185000000006     
 chl2c          22  0.64616892500000001        3.7613353106285476E-002  0.64616892500000001        0.0000000000000000        9.3808881612213338E-016
 chl          22   7.9683777583156738E-010   1.2331725420431931E-009  0.64616892500000001     
 chl2c          23  0.41564179999999995        3.2286562315070731E-002  0.41564179999999995        0.0000000000000000        1.5731694833686415E-019
 chl          23   5.1255805508540842E-010   1.2331725420431931E-009  0.41564179999999995     
 chl2c          24  0.57597492500000003        3.7348402796863071E-002  0.57597492500000003        0.0000000000000000        5.8744646650696984E-006
 chl          24   7.1027646241538755E-010   1.2331725420431931E-009  0.57597492500000003     
 chl2c          25  0.31406487500000002        4.5426679235459781E-002  0.31406487500000002        0.0000000000000000        1.1982581417324757E-019
 chl          25   3.8729618027022769E-010   1.2331725420431931E-009  0.31406487500000002     
 chl2c          26  0.49427735000000000        4.7955660680174553E-002  0.49427735000000000        0.0000000000000000        9.5518972014313976E-010
 chl          26   6.0952925617387305E-010   1.2331725420431931E-009  0.49427735000000000     
 chl2c          27  0.30964730000000001        4.5333133499525620E-002  0.30964730000000001        0.0000000000000000        1.0527142749925847E-008
 chl          27   3.8184854807781127E-010   1.2331725420431931E-009  0.30964730000000001     
 chl2c          28  0.28776342500000002        3.1209236063453518E-002  0.28776342500000002        0.0000000000000000        1.0451113320753848E-008
 chl          28   3.5486195431430576E-010   1.2331725420431931E-009  0.28776342500000002     
 chl2c          29  0.68676297499999994        3.7743217595736761E-002  0.68676297499999994        0.0000000000000000        9.3416936067240992E-016
 chl          29   8.4689724366189585E-010   1.2331725420431931E-009  0.68676297499999994     
 chl2c          30  0.38930277499999999        2.5380056985171612E-002  0.38930277499999999        0.0000000000000000        4.7651286793480008E-006
 chl          30   4.8007749267121926E-010   1.2331725420431931E-009  0.38930277499999999     
 chl2c          31  0.63559385000000002        3.7576959810037038E-002  0.63559385000000002        0.0000000000000000        9.3635922540461370E-016
 chl          31   7.8379688371151999E-010   1.2331725420431931E-009  0.63559385000000002     
 chl2c          32  0.24722667500000001        2.0893126428578448E-002  0.24722667500000001        0.0000000000000000        5.4365808198962345E-016
 chl          32   3.0487314727063637E-010   1.2331725420431931E-009  0.24722667500000001     
 chl2c          33  0.60343137499999999        3.7458922634011876E-002  0.60343137499999999        0.0000000000000000        9.2987519926133009E-016
 chl          33   7.4413500265736935E-010   1.2331725420431931E-009  0.60343137499999999     
 chl2c          34  0.38241020000000003        2.5350269098008315E-002  0.38241020000000003        0.0000000000000000        5.3925614937914656E-016
 chl          34   4.7157775843724591E-010   1.2331725420431931E-009  0.38241020000000003     
 chl2c          35  0.49574644999999995        2.5740370148566064E-002  0.49574644999999995        0.0000000000000000        3.9412227138459574E-006
 chl          35   6.1134090995538870E-010   1.2331725420431931E-009  0.49574644999999995     
 chl2c          36  0.69587337500000002        3.7770393924465726E-002  0.69587337500000002        0.0000000000000000        5.9874490630601438E-006
 chl          36   8.5813193878892618E-010   1.2331725420431931E-009  0.69587337500000002     
 chl2c          37  0.33194060000000003        2.1353674699533250E-002  0.33194060000000003        0.0000000000000000        2.4833290312991844E-007
 chl          37   4.0934003350934279E-010   1.2331725420431931E-009  0.33194060000000003     
 chl2c          38  0.38455722500000000        2.1543295686358745E-002  0.38455722500000000        0.0000000000000000        3.4160797821287434E-006
 chl          38   4.7422541071432614E-010   1.2331725420431931E-009  0.38455722500000000     
 chl2c          39  0.47091117500000002        2.5670077108751441E-002  0.47091117500000002        0.0000000000000000        2.2084660993090015E-006
 chl          39   5.8071473075129696E-010   1.2331725420431931E-009  0.47091117500000002     
 chl2c          40  0.66875547499999999        3.7687445774703773E-002  0.66875547499999999        0.0000000000000000        5.5703896888499365E-006
 chl          40   8.2469088911105309E-010   1.2331725420431931E-009  0.66875547499999999     
 chl2c          41  0.44304987499999998        2.5582381488167241E-002  0.44304987499999998        0.0000000000000000        5.3742563721902819E-016
 chl          41   5.4635694060566896E-010   1.2331725420431931E-009  0.44304987499999998     
 chl2c          42  0.76234377499999995        3.7949995630725070E-002  0.76234377499999995        0.0000000000000000        4.6897723563589460E-006
 chl          42   9.4010141092755398E-010   1.2331725420431931E-009  0.76234377499999995     
 chl2c          43  0.29539925000000000        2.1185090152268007E-002  0.29539925000000000        0.0000000000000000        5.4366016314360402E-016
 chl          43   3.6427824404015269E-010   1.2331725420431931E-009  0.29539925000000000     
 chl2c          44  0.62417262500000004        3.7536352708156646E-002  0.62417262500000004        0.0000000000000000        7.9082501006824680E-006
 chl          44   7.6971254264502278E-010   1.2331725420431931E-009  0.62417262500000004     
 chl2c          45  0.37662252499999999        4.6544927192009838E-002  0.37662252499999999        0.0000000000000000        1.4484686813771201E-019
 chl          45   4.6444055654497604E-010   1.2331725420431931E-009  0.37662252499999999     
 chl2c          46  0.51876034999999998        3.7083195475449568E-002  0.51876034999999998        0.0000000000000000        9.3633230130043893E-016
 chl          46   6.3972101952071660E-010   1.2331725420431931E-009  0.51876034999999998     
 chl2c          47  0.61962282499999999        3.7519784612651236E-002  0.61962282499999999        0.0000000000000000        8.2275070177967022E-006
 chl          47   7.6410185421323457E-010   1.2331725420431931E-009  0.61962282499999999     
 chl2c          48  0.71424949999999998        3.7823212136301673E-002  0.71424949999999998        0.0000000000000000        6.3881176205724620E-006
 chl          48   8.8079287156807965E-010   1.2331725420431931E-009  0.71424949999999998     
 chl2c          49  0.53276120000000005        3.7152990741888416E-002  0.53276120000000005        0.0000000000000000        8.1975788518036849E-006
 chl          49   6.5698648330598206E-010   1.2331725420431931E-009  0.53276120000000005     
 chl2c          50  0.38132569999999999        2.1533072915600981E-002  0.38132569999999999        0.0000000000000000        5.4081548172883147E-016
 chl          50   4.7024038281540006E-010   1.2331725420431931E-009  0.38132569999999999     
 chl2c          51  0.22275920000000002        2.0700971146093840E-002  0.22275920000000002        0.0000000000000000        3.6263258097861129E-006
 chl          51   2.7470052892750810E-010   1.2331725420431931E-009  0.22275920000000002     
 chl2c          52  0.63698869999999996        3.7581825176985564E-002  0.63698869999999996        0.0000000000000000        6.7652156740098687E-006
 chl          52   7.8551697443178892E-010   1.2331725420431931E-009  0.63698869999999996     
 chl2c          53  0.75269794999999995        3.7925801262726190E-002  0.75269794999999995        0.0000000000000000        3.9139351323830917E-006
 chl          53   9.2820644439220022E-010   1.2331725420431931E-009  0.75269794999999995     
 chl2c          54  0.51861124999999997        3.7082433371327092E-002  0.51861124999999997        0.0000000000000000        8.1562101791751636E-006
 chl          54   6.3953715349469795E-010   1.2331725420431931E-009  0.51861124999999997     
 chl2c          55  0.57808280000000001        3.7357235588660491E-002  0.57808280000000001        0.0000000000000000        9.3785076601066897E-016
 chl          55   7.1287583598744683E-010   1.2331725420431931E-009  0.57808280000000001     
 chl2c          56  0.61626080000000005        3.7507394187257688E-002  0.61626080000000005        0.0000000000000000        5.2150551166374114E-006
 chl          56   7.5995589729757185E-010   1.2331725420431931E-009  0.61626080000000005     
 chl2c          57  0.68163462500000005        3.7727617852646313E-002  0.68163462500000005        0.0000000000000000        9.3832806498680291E-016
 chl          57   8.4057310325590870E-010   1.2331725420431931E-009  0.68163462500000005     
 chl2c          58  0.69416802499999997        3.7765358178394853E-002  0.69416802499999997        0.0000000000000000        9.3738707452186901E-016
 chl          58   8.5602894799435281E-010   1.2331725420431931E-009  0.69416802499999997     
 chl2c          59  0.53705127500000005        3.7173699120809672E-002  0.53705127500000005        0.0000000000000000        9.3909862132222778E-016
 chl          59   6.6227688599928804E-010   1.2331725420431931E-009  0.53705127500000005     
 chl2c          60  0.64452155000000000        3.7607757740906807E-002  0.64452155000000000        0.0000000000000000        9.2749835364997745E-016
 chl          60   7.9480627821511902E-010   1.2331725420431931E-009  0.64452155000000000     
 chl2c          61  0.70794139999999994        3.7805373434125003E-002  0.70794139999999994        0.0000000000000000        7.1718590743954046E-006
 chl          61   8.7301389585561696E-010   1.2331725420431931E-009  0.70794139999999994     
 chl2c          62  0.76481592499999995        3.7956103087269030E-002  0.76481592499999995        0.0000000000000000        6.2021602876645068E-006
 chl          62   9.4314999842736608E-010   1.2331725420431931E-009  0.76481592499999995     
 chl2c          63  0.72597904999999996        3.7855601011927406E-002  0.72597904999999996        0.0000000000000000        9.2795665494412045E-016
 chl          63   8.9525743055860230E-010   1.2331725420431931E-009  0.72597904999999996     
 chl2c          64  0.48435739999999999        2.5708982294816416E-002  0.48435739999999999        0.0000000000000000        4.2626689926844238E-006
 chl          64   5.9729624621543171E-010   1.2331725420431931E-009  0.48435739999999999     
 chl2c          65  0.76379975000000000        3.7953597170552002E-002  0.76379975000000000        0.0000000000000000        9.3121429485870950E-016
 chl          65   9.4189687931945533E-010   1.2331725420431931E-009  0.76379975000000000     
 chl2c          66  0.35213202499999996        3.1840477731474713E-002  0.35213202499999996        0.0000000000000000        8.6581863191451223E-010
 chl          66   4.3423954440406717E-010   1.2331725420431931E-009  0.35213202499999996     
 chl2c          67  0.75736760000000003        3.7937587124568600E-002  0.75736760000000003        0.0000000000000000        8.1960338793023134E-006
 chl          67   9.3396492855315232E-010   1.2331725420431931E-009  0.75736760000000003     
 chl2c          68  0.72590779999999999        3.7855407263856986E-002  0.72590779999999999        0.0000000000000000        9.3825302901426669E-016
 chl          68   8.9516956701498183E-010   1.2331725420431931E-009  0.72590779999999999     
 chl2c          69  0.45524217500000003        2.1732330561541505E-002  0.45524217500000003        0.0000000000000000        5.3964195078796286E-016
 chl          69   5.6139215019002223E-010   1.2331725420431931E-009  0.45524217500000003     
 chl2c          70  0.48694062500000002        3.2658010878182209E-002  0.48694062500000002        0.0000000000000000        1.2930455627016632E-008
 chl          70   6.0048180835535130E-010   1.2331725420431931E-009  0.48694062500000002     
 chl2c          71  0.23986107500000001        4.3481058864416305E-002  0.23986107500000001        0.0000000000000000        1.3320625288978484E-019
 chl          71   2.9579009159496300E-010   1.2331725420431931E-009  0.23986107500000001     
 chl2c          72  0.62790522500000001        3.7549776402781669E-002  0.62790522500000001        0.0000000000000000        7.3082710479185806E-006
 chl          72   7.7431548247545316E-010   1.2331725420431931E-009  0.62790522500000001     
 chl2c          73  0.35362212500000001        3.1852614277819484E-002  0.35362212500000001        0.0000000000000000        6.4040832674104711E-010
 chl          73   4.3607709480896578E-010   1.2331725420431931E-009  0.35362212500000001     
 chl2c          74  0.64719590000000005        3.7616827685877569E-002  0.64719590000000005        0.0000000000000000        9.3433171110298633E-016
 chl          74   7.9810421320293226E-010   1.2331725420431931E-009  0.64719590000000005     
 chl2c          75  0.71554212500000003        3.7826830779512356E-002  0.71554212500000003        0.0000000000000000        6.3542299229981292E-006
 chl          75   8.8238690122523826E-010   1.2331725420431931E-009  0.71554212500000003     
 chl2c          76  0.55513977500000000        3.7257729557919804E-002  0.55513977500000000        0.0000000000000000        9.3441853230459223E-016
 chl          76   6.8458312752603629E-010   1.2331725420431931E-009  0.55513977500000000     
 chl2c          77  0.52973029999999999        3.7138172437479272E-002  0.52973029999999999        0.0000000000000000        9.2657778404485645E-016
 chl          77   6.5324886064830330E-010   1.2331725420431931E-009  0.52973029999999999     
 chl2c          78  0.45117492500000000        4.7515248899399322E-002  0.45117492500000000        0.0000000000000000        1.5218341544591898E-018
 chl          78   5.5637652916839702E-010   1.2331725420431931E-009  0.45117492500000000     
 prod   5.4059917932527109E-010   0.0000000000000000        10.000000000000000     
 dcdom   6.7590424707018050E-013  -3.1941807903897943E-015
 chl2c           1  0.60826437499999997        3.7477407714772232E-002  0.60826437499999997        0.0000000000000000        9.3573127378285851E-016
 chl           1   2.0574086155247207E-010   3.3824249784885409E-010  0.60826437499999997     
 chl2c           2  0.48302390000000001        3.2640259920490348E-002  0.48302390000000001        0.0000000000000000        4.8752669374458759E-020
 chl           2   1.6337921045669511E-010   3.3824249784885409E-010  0.48302390000000001     
 chl2c           3  0.75128689999999998        3.7922212503796585E-002  0.75128689999999998        0.0000000000000000        7.3531488275659359E-006
 chl           3   2.5411715765712223E-010   3.3824249784885409E-010  0.75128689999999998     
 chl2c           4  0.77318742499999993        3.7976509103863923E-002  0.77318742499999993        0.0000000000000000        9.3841762755724212E-016
 chl           4   2.6152484593732350E-010   3.3824249784885409E-010  0.77318742499999993     
 chl2c           5  0.48489679999999996        2.5710500362372445E-002  0.48489679999999996        0.0000000000000000        5.3956964183503835E-016
 chl           5   1.6401270483091621E-010   3.3824249784885409E-010  0.48489679999999996     
 chl2c           6  0.29222855000000003        3.1261039902252048E-002  0.29222855000000003        0.0000000000000000        6.4880524612597497E-019
 chl           6   9.8844114694748765E-011   3.3824249784885409E-010  0.29222855000000003     
 chl2c           7  0.22770740000000000        4.3064391842467263E-002  0.22770740000000000        0.0000000000000000        4.7572210076576584E-020
 chl           7   7.7020319754668156E-011   3.3824249784885409E-010  0.22770740000000000     
 chl2c           8  0.49578364999999996        4.7969800906495587E-002  0.49578364999999996        0.0000000000000000        5.0548591528736510E-020
 chl           8   1.6769510016862202E-010   3.3824249784885409E-010  0.49578364999999996     
 chl2c           9  0.28700202499999999        2.4803669054600401E-002  0.28700202499999999        0.0000000000000000        5.4184081042678104E-016
 chl           9   9.7076281823679268E-011   3.3824249784885409E-010  0.28700202499999999     
 chl2c          10  0.39094662499999999        2.5387016219684602E-002  0.39094662499999999        0.0000000000000000        5.4184867389951898E-016
 chl          10   1.3223476296557927E-010   3.3824249784885409E-010  0.39094662499999999     
 chl2c          11  0.49737575000000001        2.1820572217820047E-002  0.49737575000000001        0.0000000000000000        4.5799015805240553E-006
 chl          11   1.6823361604944719E-010   3.3824249784885409E-010  0.49737575000000001     
 chl2c          12  0.30768942500000002        4.5290941298723353E-002  0.30768942500000002        0.0000000000000000        1.9096651602570127E-010
 chl          12   1.0407363967367765E-010   3.3824249784885409E-010  0.30768942500000002     
 chl2c          13  0.75666275000000005        3.7935816987997487E-002  0.75666275000000005        0.0000000000000000        6.6762390272125620E-006
 chl          13   2.5593549858918304E-010   3.3824249784885409E-010  0.75666275000000005     
 chl2c          14  0.39804095000000000        4.6856526101924839E-002  0.39804095000000000        0.0000000000000000        1.2742196518822392E-009
 chl          14   1.3463436517413084E-010   3.3824249784885409E-010  0.39804095000000000     
 chl2c          15  0.25607262500000000        2.0954299823745293E-002  0.25607262500000000        0.0000000000000000        5.4323458438436399E-016
 chl          15   8.6614644310712914E-011   3.3824249784885409E-010  0.25607262500000000     
 chl2c          16  0.71433214999999994        3.7823443882273475E-002  0.71433214999999994        0.0000000000000000        4.6388070932503793E-006
 chl          16   2.4161749070974229E-010   3.3824249784885409E-010  0.71433214999999994     
 chl2c          17  0.62580860000000005        3.7542254757581245E-002  0.62580860000000005        0.0000000000000000        8.0532668139257395E-006
 chl          17   2.1167506403929439E-010   3.3824249784885409E-010  0.62580860000000005     
 chl2c          18  0.47925950000000000        2.5694475239060960E-002  0.47925950000000000        0.0000000000000000        2.0206780738230873E-006
 chl          18   1.6210593039779290E-010   3.3824249784885409E-010  0.47925950000000000     
 chl2c          19  0.63367130000000005        3.7570220750293731E-002  0.63367130000000005        0.0000000000000000        9.2840804349270472E-016
 chl          19   2.1433456332713060E-010   3.3824249784885409E-010  0.63367130000000005     
 chl2c          20  0.50678202500000002        3.7020645196759419E-002  0.50678202500000002        0.0000000000000000        7.4097154354556493E-006
 chl          20   1.7141521800090042E-010   3.3824249784885409E-010  0.50678202500000002     
 chl2c          21  0.71973185000000006        3.7838475073783531E-002  0.71973185000000006        0.0000000000000000        9.3329272539305717E-016
 chl          21   2.4344389872537681E-010   3.3824249784885409E-010  0.71973185000000006     
 chl2c          22  0.64616892500000001        3.7613353106285476E-002  0.64616892500000001        0.0000000000000000        9.3808881612213338E-016
 chl          22   2.1856179122430887E-010   3.3824249784885409E-010  0.64616892500000001     
 chl2c          23  0.41564179999999995        3.2286562315070731E-002  0.41564179999999995        0.0000000000000000        6.9592942330903696E-020
 chl          23   1.4058772064239382E-010   3.3824249784885409E-010  0.41564179999999995     
 chl2c          24  0.57597492500000003        3.7348402796863071E-002  0.57597492500000003        0.0000000000000000        6.3264352366112550E-006
 chl          24   1.9481919733030640E-010   3.3824249784885409E-010  0.57597492500000003     
 chl2c          25  0.31406487500000002        4.5426679235459781E-002  0.31406487500000002        0.0000000000000000        5.3005824674954125E-020
 chl          25   1.0623008780658814E-010   3.3824249784885409E-010  0.31406487500000002     
 chl2c          26  0.49427735000000000        4.7955660680174553E-002  0.49427735000000000        0.0000000000000000        4.1282289534658831E-010
 chl          26   1.6718560549411229E-010   3.3824249784885409E-010  0.49427735000000000     
 chl2c          27  0.30964730000000001        4.5333133499525620E-002  0.30964730000000001        0.0000000000000000        4.2057375638671085E-009
 chl          27   1.0473587620415348E-010   3.3824249784885409E-010  0.30964730000000001     
 chl2c          28  0.28776342500000002        3.1209236063453518E-002  0.28776342500000002        0.0000000000000000        4.1573497906962574E-009
 chl          28   9.7333819661541394E-011   3.3824249784885409E-010  0.28776342500000002     
 chl2c          29  0.68676297499999994        3.7743217595736761E-002  0.68676297499999994        0.0000000000000000        9.3416936067240992E-016
 chl          29   2.3229242409411011E-010   3.3824249784885409E-010  0.68676297499999994     
 chl2c          30  0.38930277499999999        2.5380056985171612E-002  0.38930277499999999        0.0000000000000000        4.6645666814128031E-006
 chl          30   1.3167874303549043E-010   3.3824249784885409E-010  0.38930277499999999     
 chl2c          31  0.63559385000000002        3.7576959810037038E-002  0.63559385000000002        0.0000000000000000        9.3635922540461370E-016
 chl          31   2.1498485144136991E-010   3.3824249784885409E-010  0.63559385000000002     
 chl2c          32  0.24722667500000001        2.0893126428578448E-002  0.24722667500000001        0.0000000000000000        5.4365808198962345E-016
 chl          32   8.3622568086866851E-011   3.3824249784885409E-010  0.24722667500000001     
 chl2c          33  0.60343137499999999        3.7458922634011876E-002  0.60343137499999999        0.0000000000000000        9.2987519926133009E-016
 chl          33   2.0410613556036857E-010   3.3824249784885409E-010  0.60343137499999999     
 chl2c          34  0.38241020000000003        2.5350269098008315E-002  0.38241020000000003        0.0000000000000000        5.3925614937914656E-016
 chl          34   1.2934738125087988E-010   3.3824249784885409E-010  0.38241020000000003     
 chl2c          35  0.49574644999999995        2.5740370148566064E-002  0.49574644999999995        0.0000000000000000        4.1662002923774868E-006
 chl          35   1.6768251754770204E-010   3.3824249784885409E-010  0.49574644999999995     
 chl2c          36  0.69587337500000002        3.7770393924465726E-002  0.69587337500000002        0.0000000000000000        6.4219352999085958E-006
 chl          36   2.3537394854651235E-010   3.3824249784885409E-010  0.69587337500000002     
 chl2c          37  0.33194060000000003        2.1353674699533250E-002  0.33194060000000003        0.0000000000000000        9.1430796756043720E-007
 chl          37   1.1227641768144734E-010   3.3824249784885409E-010  0.33194060000000003     
 chl2c          38  0.38455722500000000        2.1543295686358745E-002  0.38455722500000000        0.0000000000000000        3.7942061573892818E-006
 chl          38   1.3007359634982381E-010   3.3824249784885409E-010  0.38455722500000000     
 chl2c          39  0.47091117500000002        2.5670077108751441E-002  0.47091117500000002        0.0000000000000000        2.8085437059150377E-006
 chl          39   1.5928217209693885E-010   3.3824249784885409E-010  0.47091117500000002     
 chl2c          40  0.66875547499999999        3.7687445774703773E-002  0.66875547499999999        0.0000000000000000        4.6586249949864508E-006
 chl          40   2.2620152231409688E-010   3.3824249784885409E-010  0.66875547499999999     
 chl2c          41  0.44304987499999998        2.5582381488167241E-002  0.44304987499999998        0.0000000000000000        5.3742563721902809E-016
 chl          41   1.4985829639162257E-010   3.3824249784885409E-010  0.44304987499999998     
 chl2c          42  0.76234377499999995        3.7949995630725070E-002  0.76234377499999995        0.0000000000000000        3.7002656784841545E-006
 chl          42   2.5785706267552480E-010   3.3824249784885409E-010  0.76234377499999995     
 chl2c          43  0.29539925000000000        2.1185090152268007E-002  0.29539925000000000        0.0000000000000000        5.4366016314360402E-016
 chl          43   9.9916580182678113E-011   3.3824249784885409E-010  0.29539925000000000     
 chl2c          44  0.62417262500000004        3.7536352708156646E-002  0.62417262500000004        0.0000000000000000        7.5523795411740247E-006
 chl          44   2.1112170776887612E-010   3.3824249784885409E-010  0.62417262500000004     
 chl2c          45  0.37662252499999999        4.6544927192009838E-002  0.37662252499999999        0.0000000000000000        6.4075693259821796E-020
 chl          45   1.2738974360214248E-010   3.3824249784885409E-010  0.37662252499999999     
 chl2c          46  0.51876034999999998        3.7083195475449568E-002  0.51876034999999998        0.0000000000000000        9.3633230130043893E-016
 chl          46   1.7546679656894579E-010   3.3824249784885409E-010  0.51876034999999998     
 chl2c          47  0.61962282499999999        3.7519784612651236E-002  0.61962282499999999        0.0000000000000000        8.0414696231379288E-006
 chl          47   2.0958277205216339E-010   3.3824249784885409E-010  0.61962282499999999     
 chl2c          48  0.71424949999999998        3.7823212136301673E-002  0.71424949999999998        0.0000000000000000        5.6003340684960918E-006
 chl          48   2.4158953496729513E-010   3.3824249784885409E-010  0.71424949999999998     
 chl2c          49  0.53276120000000005        3.7152990741888416E-002  0.53276120000000005        0.0000000000000000        8.0118133797470767E-006
 chl          49   1.8020247904495295E-010   3.3824249784885409E-010  0.53276120000000005     
 chl2c          50  0.38132569999999999        2.1533072915600981E-002  0.38132569999999999        0.0000000000000000        5.4081548172883147E-016
 chl          50   1.2898055726196278E-010   3.3824249784885409E-010  0.38132569999999999     
 chl2c          51  0.22275920000000002        2.0700971146093840E-002  0.22275920000000002        0.0000000000000000        3.9520859608112464E-006
 chl          51   7.5346628226812467E-011   3.3824249784885409E-010  0.22275920000000002     
 chl2c          52  0.63698869999999996        3.7581825176985564E-002  0.63698869999999996        0.0000000000000000        6.0449965684021280E-006
 chl          52   2.1545664898949436E-010   3.3824249784885409E-010  0.63698869999999996     
 chl2c          53  0.75269794999999995        3.7925801262726190E-002  0.75269794999999995        0.0000000000000000        2.8829780370028668E-006
 chl          53   2.5459443473371185E-010   3.3824249784885409E-010  0.75269794999999995     
 chl2c          54  0.51861124999999997        3.7082433371327092E-002  0.51861124999999997        0.0000000000000000        7.9712540259548092E-006
 chl          54   1.7541636461251651E-010   3.3824249784885409E-010  0.51861124999999997     
 chl2c          55  0.57808280000000001        3.7357235588660491E-002  0.57808280000000001        0.0000000000000000        9.3785076601066897E-016
 chl          55   1.9553217023545954E-010   3.3824249784885409E-010  0.57808280000000001     
 chl2c          56  0.61626080000000005        3.7507394187257688E-002  0.61626080000000005        0.0000000000000000        5.7960021786892088E-006
 chl          56   2.0844559231833312E-010   3.3824249784885409E-010  0.61626080000000005     
 chl2c          57  0.68163462500000005        3.7727617852646313E-002  0.68163462500000005        0.0000000000000000        9.3832806498680291E-016
 chl          57   2.3055779818026699E-010   3.3824249784885409E-010  0.68163462500000005     
 chl2c          58  0.69416802499999997        3.7765358178394853E-002  0.69416802499999997        0.0000000000000000        9.3738707452186901E-016
 chl          58   2.3479712670280580E-010   3.3824249784885409E-010  0.69416802499999997     
 chl2c          59  0.53705127500000005        3.7173699120809672E-002  0.53705127500000005        0.0000000000000000        9.3909862132222778E-016
 chl          59   1.8165356472891187E-010   3.3824249784885409E-010  0.53705127500000005     
 chl2c          60  0.64452155000000000        3.7607757740906807E-002  0.64452155000000000        0.0000000000000000        9.2749835364997745E-016
 chl          60   2.1800457898941510E-010   3.3824249784885409E-010  0.64452155000000000     
 chl2c          61  0.70794139999999994        3.7805373434125003E-002  0.70794139999999994        0.0000000000000000        7.3485746237534978E-006
 chl          61   2.3945586746661475E-010   3.3824249784885409E-010  0.70794139999999994     
 chl2c          62  0.76481592499999995        3.7956103087269030E-002  0.76481592499999995        0.0000000000000000        5.3986212043856411E-006
 chl          62   2.5869324886658184E-010   3.3824249784885409E-010  0.76481592499999995     
 chl2c          63  0.72597904999999996        3.7855601011927406E-002  0.72597904999999996        0.0000000000000000        9.2795665494412045E-016
 chl          63   2.4555696725793812E-010   3.3824249784885409E-010  0.72597904999999996     
 chl2c          64  0.48435739999999999        2.5708982294816416E-002  0.48435739999999999        0.0000000000000000        4.3704522256713072E-006
 chl          64   1.6383025682757656E-010   3.3824249784885409E-010  0.48435739999999999     
 chl2c          65  0.76379975000000000        3.7953597170552002E-002  0.76379975000000000        0.0000000000000000        9.3121429485870950E-016
 chl          65   2.5834953529633031E-010   3.3824249784885409E-010  0.76379975000000000     
 chl2c          66  0.35213202499999996        3.1840477731474713E-002  0.35213202499999996        0.0000000000000000        4.0542369309578851E-010
 chl          66   1.1910601570857511E-010   3.3824249784885409E-010  0.35213202499999996     
 chl2c          67  0.75736760000000003        3.7937587124568600E-002  0.75736760000000003        0.0000000000000000        8.0102037841645829E-006
 chl          67   2.5617390881379178E-010   3.3824249784885409E-010  0.75736760000000003     
 chl2c          68  0.72590779999999999        3.7855407263856986E-002  0.72590779999999999        0.0000000000000000        9.3841762755724212E-016
 chl          68   2.4553286747996639E-010   3.3824249784885409E-010  0.72590779999999999     
 chl2c          69  0.45524217500000003        2.1732330561541505E-002  0.45524217500000003        0.0000000000000000        5.3964195078796286E-016
 chl          69   1.5398225039814518E-010   3.3824249784885409E-010  0.45524217500000003     
 chl2c          70  0.48694062500000002        3.2658010878182209E-002  0.48694062500000002        0.0000000000000000        5.1435922247313697E-009
 chl          70   1.6470401330408216E-010   3.3824249784885409E-010  0.48694062500000002     
 chl2c          71  0.23986107500000001        4.3481058864416305E-002  0.23986107500000001        0.0000000000000000        5.8925557451993468E-020
 chl          71   8.1131209144711334E-011   3.3824249784885409E-010  0.23986107500000001     
 chl2c          72  0.62790522500000001        3.7549776402781669E-002  0.62790522500000001        0.0000000000000000        6.7166872884282506E-006
 chl          72   2.1238423171634675E-010   3.3824249784885409E-010  0.62790522500000001     
 chl2c          73  0.35362212500000001        3.1852614277819484E-002  0.35362212500000001        0.0000000000000000        3.5477628759665507E-010
 chl          73   1.1961003085461971E-010   3.3824249784885409E-010  0.35362212500000001     
 chl2c          74  0.64719590000000005        3.7616827685877569E-002  0.64719590000000005        0.0000000000000000        9.3433171110298633E-016
 chl          74   2.1890915781353719E-010   3.3824249784885409E-010  0.64719590000000005     
 chl2c          75  0.71554212500000003        3.7826830779512356E-002  0.71554212500000003        0.0000000000000000        6.7164105511275289E-006
 chl          75   2.4202675567607701E-010   3.3824249784885409E-010  0.71554212500000003     
 chl2c          76  0.55513977500000000        3.7257729557919804E-002  0.55513977500000000        0.0000000000000000        9.3441853230459223E-016
 chl          76   1.8777186415125083E-010   3.3824249784885409E-010  0.55513977500000000     
 chl2c          77  0.52973029999999999        3.7138172437479272E-002  0.52973029999999999        0.0000000000000000        9.2657778404485645E-016
 chl          77   1.7917729985822283E-010   3.3824249784885409E-010  0.52973029999999999     
 chl2c          78  0.45117492500000000        4.7515248899399322E-002  0.45117492500000000        0.0000000000000000        6.2215503036722555E-019
 chl          78   1.5260653359876941E-010   3.3824249784885409E-010  0.45117492500000000     
 prod   2.3910900262561685E-010   0.0000000000000000        10.000000000000000     
 dcdom   3.0062129622797328E-013  -8.9450441161500321E-016
 chl2c           1  0.60826437499999997        3.7477407714772232E-002  0.60826437499999997        0.0000000000000000        9.3573127378285851E-016
 chl           1   2.0574055397109167E-010   3.3824199217830517E-010  0.60826437499999997     
 chl2c           2  0.48302390000000001        3.2640259920490348E-002  0.48302390000000001        0.0000000000000000        4.8752631442402810E-020
 chl           2   1.6337896620573447E-010   3.3824199217830517E-010  0.48302390000000001     
 chl2c           3  0.75128689999999998        3.7922212503796585E-002  0.75128689999999998        0.0000000000000000        7.3531496711898508E-006
 chl           3   2.5411677775346315E-010   3.3824199217830517E-010  0.75128689999999998     
 chl2c           4  0.77318742499999993        3.7976509103863923E-002  0.77318742499999993        0.0000000000000000        9.3841762654151488E-016
 chl           4   2.6152445495921388E-010   3.3824199217830517E-010  0.77318742499999993     
 chl2c           5  0.48489679999999996        2.5710500362372445E-002  0.48489679999999996        0.0000000000000000        5.3956964183503835E-016
 chl           5   1.6401245963288518E-010   3.3824199217830517E-010  0.48489679999999996     
 chl2c           6  0.29222855000000003        3.1261039902252048E-002  0.29222855000000003        0.0000000000000000        6.4880468110556129E-019
 chl           6   9.8843966923377472E-011   3.3824199217830517E-010  0.29222855000000003     
 chl2c           7  0.22770740000000000        4.3064391842467263E-002  0.22770740000000000        0.0000000000000000        4.7572173062898711E-020
 chl           7   7.7020204609742202E-011   3.3824199217830517E-010  0.22770740000000000     
 chl2c           8  0.49578364999999996        4.7969800906495587E-002  0.49578364999999996        0.0000000000000000        5.0548552199489960E-020
 chl           8   1.6769484946543157E-010   3.3824199217830517E-010  0.49578364999999996     
 chl2c           9  0.28700202499999999        2.4803669054600401E-002  0.28700202499999999        0.0000000000000000        5.4184081042678104E-016
 chl           9   9.7076136695207741E-011   3.3824199217830517E-010  0.28700202499999999     
 chl2c          10  0.39094662499999999        2.5387016219684602E-002  0.39094662499999999        0.0000000000000000        5.4184867389951898E-016
 chl          10   1.3223456527538480E-010   3.3824199217830517E-010  0.39094662499999999     
 chl2c          11  0.49737575000000001        2.1820572217820047E-002  0.49737575000000001        0.0000000000000000        4.5799013459919688E-006
 chl          11   1.6823336454117868E-010   3.3824199217830517E-010  0.49737575000000001     
 chl2c          12  0.30768942500000002        4.5290941298723353E-002  0.30768942500000002        0.0000000000000000        1.9096590832019573E-010
 chl          12   1.0407348408419722E-010   3.3824199217830517E-010  0.30768942500000002     
 chl2c          13  0.75666275000000005        3.7935816987997487E-002  0.75666275000000005        0.0000000000000000        6.6762349515731355E-006
 chl          13   2.5593511596711491E-010   3.3824199217830517E-010  0.75666275000000005     
 chl2c          14  0.39804095000000000        4.6856526101924839E-002  0.39804095000000000        0.0000000000000000        1.2742225734120150E-009
 chl          14   1.3463416389654517E-010   3.3824199217830517E-010  0.39804095000000000     
 chl2c          15  0.25607262500000000        2.0954299823745293E-002  0.25607262500000000        0.0000000000000000        5.4323458438436399E-016
 chl          15   8.6614514822328067E-011   3.3824199217830517E-010  0.25607262500000000     
 chl2c          16  0.71433214999999994        3.7823443882273475E-002  0.71433214999999994        0.0000000000000000        4.6388009885840582E-006
 chl          16   2.4161712949301188E-010   3.3824199217830517E-010  0.71433214999999994     
 chl2c          17  0.62580860000000005        3.7542254757581245E-002  0.62580860000000005        0.0000000000000000        8.0532656422252397E-006
 chl          17   2.1167474758631612E-010   3.3824199217830517E-010  0.62580860000000005     
 chl2c          18  0.47925950000000000        2.5694475239060960E-002  0.47925950000000000        0.0000000000000000        2.0206822702313593E-006
 chl          18   1.6210568805037844E-010   3.3824199217830517E-010  0.47925950000000000     
 chl2c          19  0.63367130000000005        3.7570220750293731E-002  0.63367130000000005        0.0000000000000000        9.2840804349270472E-016
 chl          19   2.1433424289821648E-010   3.3824199217830517E-010  0.63367130000000005     
 chl2c          20  0.50678202500000002        3.7020645196759419E-002  0.50678202500000002        0.0000000000000000        7.4097125178366584E-006
 chl          20   1.7141496173615566E-010   3.3824199217830517E-010  0.50678202500000002     
 chl2c          21  0.71973185000000006        3.7838475073783531E-002  0.71973185000000006        0.0000000000000000        9.3329272539305717E-016
 chl          21   2.4344353477817711E-010   3.3824199217830517E-010  0.71973185000000006     
 chl2c          22  0.64616892500000001        3.7613353106285476E-002  0.64616892500000001        0.0000000000000000        9.3808881612213338E-016
 chl          22   2.1856146447571386E-010   3.3824199217830517E-010  0.64616892500000001     
 chl2c          23  0.41564179999999995        3.2286562315070731E-002  0.41564179999999995        0.0000000000000000        6.9592888186103229E-020
 chl          23   1.4058751046457666E-010   3.3824199217830517E-010  0.41564179999999995     
 chl2c          24  0.57597492500000003        3.7348402796863071E-002  0.57597492500000003        0.0000000000000000        6.3264377202375459E-006
 chl          24   1.9481890607674991E-010   3.3824199217830517E-010  0.57597492500000003     
 chl2c          25  0.31406487500000002        4.5426679235459781E-002  0.31406487500000002        0.0000000000000000        5.3005783434045353E-020
 chl          25   1.0622992899323040E-010   3.3824199217830517E-010  0.31406487500000002     
 chl2c          26  0.49427735000000000        4.7955660680174553E-002  0.49427735000000000        0.0000000000000000        4.1282251102366438E-010
 chl          26   1.6718535555261340E-010   3.3824199217830517E-010  0.49427735000000000     
 chl2c          27  0.30964730000000001        4.5333133499525620E-002  0.30964730000000001        0.0000000000000000        4.2057332784563514E-009
 chl          27   1.0473571962463331E-010   3.3824199217830517E-010  0.30964730000000001     
 chl2c          28  0.28776342500000002        3.1209236063453518E-002  0.28776342500000002        0.0000000000000000        4.1573453777711685E-009
 chl          28   9.7333674148052317E-011   3.3824199217830517E-010  0.28776342500000002     
 chl2c          29  0.68676297499999994        3.7743217595736761E-002  0.68676297499999994        0.0000000000000000        9.3416936067240992E-016
 chl          29   2.3229207681829958E-010   3.3824199217830517E-010  0.68676297499999994     
 chl2c          30  0.38930277499999999        2.5380056985171612E-002  0.38930277499999999        0.0000000000000000        4.6645660103953936E-006
 chl          30   1.3167854617654250E-010   3.3824199217830517E-010  0.38930277499999999     
 chl2c          31  0.63559385000000002        3.7576959810037038E-002  0.63559385000000002        0.0000000000000000        9.3635922540461370E-016
 chl          31   2.1498453004027887E-010   3.3824199217830517E-010  0.63559385000000002     
 chl2c          32  0.24722667500000001        2.0893126428578448E-002  0.24722667500000001        0.0000000000000000        5.4365808198962345E-016
 chl          32   8.3622443071618395E-011   3.3824199217830517E-010  0.24722667500000001     
 chl2c          33  0.60343137499999999        3.7458922634011876E-002  0.60343137499999999        0.0000000000000000        9.2987519926133009E-016
 chl          33   2.0410583042289393E-010   3.3824199217830517E-010  0.60343137499999999     
 chl2c          34  0.38241020000000003        2.5350269098008315E-002  0.38241020000000003        0.0000000000000000        5.3925614937914656E-016
 chl          34   1.2934718787730412E-010   3.3824199217830517E-010  0.38241020000000003     
 chl2c          35  0.49574644999999995        2.5740370148566064E-002  0.49574644999999995        0.0000000000000000        4.1662013573015045E-006
 chl          35   1.6768226686332252E-010   3.3824199217830517E-010  0.49574644999999995     
 chl2c          36  0.69587337500000002        3.7770393924465726E-002  0.69587337500000002        0.0000000000000000        6.4219376719525396E-006
 chl          36   2.3537359666384084E-010   3.3824199217830517E-010  0.69587337500000002     
 chl2c          37  0.33194060000000003        2.1353674699533250E-002  0.33194060000000003        0.0000000000000000        9.1431235229154005E-007
 chl          37   1.1227624982886193E-010   3.3824199217830517E-010  0.33194060000000003     
 chl2c          38  0.38455722500000000        2.1543295686358745E-002  0.38455722500000000        0.0000000000000000        3.7942081529571065E-006
 chl          38   1.3007340189056073E-010   3.3824199217830517E-010  0.38455722500000000     
 chl2c          39  0.47091117500000002        2.5670077108751441E-002  0.47091117500000002        0.0000000000000000        2.8085472079063419E-006
 chl          39   1.5928193397102651E-010   3.3824199217830517E-010  0.47091117500000002     
 chl2c          40  0.66875547499999999        3.7687445774703773E-002  0.66875547499999999        0.0000000000000000        4.6586189020572610E-006
 chl          40   2.2620118414414875E-010   3.3824199217830517E-010  0.66875547499999999     
 chl2c          41  0.44304987499999998        2.5582381488167241E-002  0.44304987499999998        0.0000000000000000        5.3742563721902819E-016
 chl          41   1.4985807235434906E-010   3.3824199217830517E-010  0.44304987499999998     
 chl2c          42  0.76234377499999995        3.7949995630725070E-002  0.76234377499999995        0.0000000000000000        3.7002591954188272E-006
 chl          42   2.5785667718072960E-010   3.3824199217830517E-010  0.76234377499999995     
 chl2c          43  0.29539925000000000        2.1185090152268007E-002  0.29539925000000000        0.0000000000000000        5.4366016314360402E-016
 chl          43   9.9916430807977211E-011   3.3824199217830517E-010  0.29539925000000000     
 chl2c          44  0.62417262500000004        3.7536352708156646E-002  0.62417262500000004        0.0000000000000000        7.5523770523962675E-006
 chl          44   2.1112139214316221E-010   3.3824199217830517E-010  0.62417262500000004     
 chl2c          45  0.37662252499999999        4.6544927192009838E-002  0.37662252499999999        0.0000000000000000        6.4075643407060221E-020
 chl          45   1.2738955315522352E-010   3.3824199217830517E-010  0.37662252499999999     
 chl2c          46  0.51876034999999998        3.7083195475449568E-002  0.51876034999999998        0.0000000000000000        9.3633230130043893E-016
 chl          46   1.7546653424711485E-010   3.3824199217830517E-010  0.51876034999999998     
 chl2c          47  0.61962282499999999        3.7519784612651236E-002  0.61962282499999999        0.0000000000000000        8.0414684335208932E-006
 chl          47   2.0958245872714935E-010   3.3824199217830517E-010  0.61962282499999999     
 chl2c          48  0.71424949999999998        3.7823212136301673E-002  0.71424949999999998        0.0000000000000000        5.6003287191641568E-006
 chl          48   2.4158917379235837E-010   3.3824199217830517E-010  0.71424949999999998     
 chl2c          49  0.53276120000000005        3.7152990741888416E-002  0.53276120000000005        0.0000000000000000        8.0118121941176369E-006
 chl          49   1.8020220964330450E-010   3.3824199217830517E-010  0.53276120000000005     
 chl2c          50  0.38132569999999999        2.1533072915600981E-002  0.38132569999999999        0.0000000000000000        5.4081548172883147E-016
 chl          50   1.2898036443678673E-010   3.3824199217830517E-010  0.38132569999999999     
 chl2c          51  0.22275920000000002        2.0700971146093840E-002  0.22275920000000002        0.0000000000000000        3.9520876301253974E-006
 chl          51   7.5346515584045517E-011   3.3824199217830517E-010  0.22275920000000002     
 chl2c          52  0.63698869999999996        3.7581825176985564E-002  0.63698869999999996        0.0000000000000000        6.0449916240524379E-006
 chl          52   2.1545632688306877E-010   3.3824199217830517E-010  0.63698869999999996     
 chl2c          53  0.75269794999999995        3.7925801262726190E-002  0.75269794999999995        0.0000000000000000        2.8829713916479868E-006
 chl          53   2.5459405411652630E-010   3.3824199217830517E-010  0.75269794999999995     
 chl2c          54  0.51861124999999997        3.7082433371327092E-002  0.51861124999999997        0.0000000000000000        7.9712528463128572E-006
 chl          54   1.7541610236608104E-010   3.3824199217830517E-010  0.51861124999999997     
 chl2c          55  0.57808280000000001        3.7357235588660491E-002  0.57808280000000001        0.0000000000000000        9.3785076601066897E-016
 chl          55   1.9553187791601274E-010   3.3824199217830517E-010  0.57808280000000001     
 chl2c          56  0.61626080000000005        3.7507394187257688E-002  0.61626080000000005        0.0000000000000000        5.7960054791016094E-006
 chl          56   2.0844528069339609E-010   3.3824199217830517E-010  0.61626080000000005     
 chl2c          57  0.68163462500000005        3.7727617852646313E-002  0.68163462500000005        0.0000000000000000        9.3832806498680291E-016
 chl          57   2.3055745349771199E-010   3.3824199217830517E-010  0.68163462500000005     
 chl2c          58  0.69416802499999997        3.7765358178394853E-002  0.69416802499999997        0.0000000000000000        9.3738707452186901E-016
 chl          58   2.3479677568247954E-010   3.3824199217830517E-010  0.69416802499999997     
 chl2c          59  0.53705127500000005        3.7173699120809672E-002  0.53705127500000005        0.0000000000000000        9.3909862132222778E-016
 chl          59   1.8165329315789882E-010   3.3824199217830517E-010  0.53705127500000005     
 chl2c          60  0.64452155000000000        3.7607757740906807E-002  0.64452155000000000        0.0000000000000000        9.2749835364997745E-016
 chl          60   2.1800425307384912E-010   3.3824199217830517E-010  0.64452155000000000     
 chl2c          61  0.70794139999999994        3.7805373434125003E-002  0.70794139999999994        0.0000000000000000        7.3485754193791245E-006
 chl          61   2.3945550948149840E-010   3.3824199217830517E-010  0.70794139999999994     
 chl2c          62  0.76481592499999995        3.7956103087269030E-002  0.76481592499999995        0.0000000000000000        5.3986157638772313E-006
 chl          62   2.5869286212169323E-010   3.3824199217830517E-010  0.76481592499999995     
 chl2c          63  0.72597904999999996        3.7855601011927406E-002  0.72597904999999996        0.0000000000000000        9.2795665494412045E-016
 chl          63   2.4555660015171338E-010   3.3824199217830517E-010  0.72597904999999996     
 chl2c          64  0.48435739999999999        2.5708982294816416E-002  0.48435739999999999        0.0000000000000000        4.3704526186880404E-006
 chl          64   1.6383001190230423E-010   3.3824199217830517E-010  0.48435739999999999     
 chl2c          65  0.76379975000000000        3.7953597170552002E-002  0.76379975000000000        0.0000000000000000        9.3121429485870950E-016
 chl          65   2.5834914906529142E-010   3.3824199217830517E-010  0.76379975000000000     
 chl2c          66  0.35213202499999996        3.1840477731474713E-002  0.35213202499999996        0.0000000000000000        4.0542348434580353E-010
 chl          66   1.1910583764578074E-010   3.3824199217830517E-010  0.35213202499999996     
 chl2c          67  0.75736760000000003        3.7937587124568600E-002  0.75736760000000003        0.0000000000000000        8.0102025987648092E-006
 chl          67   2.5617352583530176E-010   3.3824199217830517E-010  0.75736760000000003     
 chl2c          68  0.72590779999999999        3.7855407263856986E-002  0.72590779999999999        0.0000000000000000        9.3841762654151488E-016
 chl          68   2.4553250040977070E-010   3.3824199217830517E-010  0.72590779999999999     
 chl2c          69  0.45524217500000003        2.1732330561541505E-002  0.45524217500000003        0.0000000000000000        5.3964195078796286E-016
 chl          69   1.5398202019558463E-010   3.3824199217830517E-010  0.45524217500000003     
 chl2c          70  0.48694062500000002        3.2658010878182209E-002  0.48694062500000002        0.0000000000000000        5.1435867539729297E-009
 chl          70   1.6470376707254903E-010   3.3824199217830517E-010  0.48694062500000002     
 chl2c          71  0.23986107500000001        4.3481058864416305E-002  0.23986107500000001        0.0000000000000000        5.8925511605759581E-020
 chl          71   8.1131087854029870E-011   3.3824199217830517E-010  0.23986107500000001     
 chl2c          72  0.62790522500000001        3.7549776402781669E-002  0.62790522500000001        0.0000000000000000        6.7166831731035229E-006
 chl          72   2.1238391420316695E-010   3.3824199217830517E-010  0.62790522500000001     
 chl2c          73  0.35362212500000001        3.1852614277819484E-002  0.35362212500000001        0.0000000000000000        3.5477642573677224E-010
 chl          73   1.1960985203832566E-010   3.3824199217830517E-010  0.35362212500000001     
 chl2c          74  0.64719590000000005        3.7616827685877569E-002  0.64719590000000005        0.0000000000000000        9.3433171110298633E-016
 chl          74   2.1890883054563119E-010   3.3824199217830517E-010  0.64719590000000005     
 chl2c          75  0.71554212500000003        3.7826830779512356E-002  0.71554212500000003        0.0000000000000000        6.7164124708382741E-006
 chl          75   2.4202639384749784E-010   3.3824199217830517E-010  0.71554212500000003     
 chl2c          76  0.55513977500000000        3.7257729557919804E-002  0.55513977500000000        0.0000000000000000        9.3441853230459223E-016
 chl          76   1.8777158343341610E-010   3.3824199217830517E-010  0.55513977500000000     
 chl2c          77  0.52973029999999999        3.7138172437479272E-002  0.52973029999999999        0.0000000000000000        9.2657778404485645E-016
 chl          77   1.7917703198921125E-010   3.3824199217830517E-010  0.52973029999999999     
 chl2c          78  0.45117492500000000        4.7515248899399322E-002  0.45117492500000000        0.0000000000000000        6.2215448853375933E-019
 chl          78   1.5260630545289742E-010   3.3824199217830517E-010  0.45117492500000000     
 prod   2.3910881657019571E-010   0.0000000000000000        10.000000000000000     
 dcdom   3.0062106421862534E-013  -8.9450310650797060E-016
 chl2c           1  0.60826437499999997        3.7477407714772232E-002  0.60826437499999997        0.0000000000000000        9.3244002537763523E-016
 chl           1   4.6291603812276264E-017   7.6104413993136238E-017  0.60826437499999997     
 chl2c           2  0.48302390000000001        3.2640259920490348E-002  0.48302390000000001        0.0000000000000000        1.1291220309758377E-020
 chl           2   3.6760250854179238E-017   7.6104413993136238E-017  0.48302390000000001     
 chl2c           3  0.75128689999999998        3.7922212503796585E-002  0.75128689999999998        0.0000000000000000        7.3792147715311412E-006
 chl           3   5.7176249265219944E-017   7.6104413993136238E-017  0.75128689999999998     
 chl2c           4  0.77318742499999993        3.7976509103863923E-002  0.77318742499999993        0.0000000000000000        9.3244002537763523E-016
 chl           4   5.8842975886486971E-017   7.6104413993136238E-017  0.77318742499999993     
 chl2c           5  0.48489679999999996        2.5710500362372445E-002  0.48489679999999996        0.0000000000000000        5.3956964183503835E-016
 chl           5   3.6902786811146982E-017   7.6104413993136238E-017  0.48489679999999996     
 chl2c           6  0.29222855000000003        3.1261039902252048E-002  0.29222855000000003        0.0000000000000000        1.4149098488360172E-019
 chl           6   2.2239882549813914E-017   7.6104413993136238E-017  0.29222855000000003     
 chl2c           7  0.22770740000000000        4.3064391842467263E-002  0.22770740000000000        0.0000000000000000        1.1017805330196280E-020
 chl           7   1.7329538238900670E-017   7.6104413993136238E-017  0.22770740000000000     
 chl2c           8  0.49578364999999996        4.7969800906495587E-002  0.49578364999999996        0.0000000000000000        1.1707188956680030E-020
 chl           8   3.7731324150628158E-017   7.6104413993136238E-017  0.49578364999999996     
 chl2c           9  0.28700202499999999        2.4803669054600401E-002  0.28700202499999999        0.0000000000000000        5.4184081042678104E-016
 chl           9   2.1842120927468436E-017   7.6104413993136238E-017  0.28700202499999999     
 chl2c          10  0.39094662499999999        2.5387016219684602E-002  0.39094662499999999        0.0000000000000000        5.4184867389951898E-016
 chl          10   2.9752763798219386E-017   7.6104413993136238E-017  0.39094662499999999     
 chl2c          11  0.49737575000000001        2.1820572217820047E-002  0.49737575000000001        0.0000000000000000        4.5421932122279881E-006
 chl          11   3.7852489988146634E-017   7.6104413993136238E-017  0.49737575000000001     
 chl2c          12  0.30768942500000002        4.5290941298723353E-002  0.30768942500000002        0.0000000000000000        3.2144699096270650E-011
 chl          12   2.3416523381510043E-017   7.6104413993136238E-017  0.30768942500000002     
 chl2c          13  0.75666275000000005        3.7935816987997487E-002  0.75666275000000005        0.0000000000000000        6.1927255551898113E-006
 chl          13   5.7585375179184945E-017   7.6104413993136238E-017  0.75666275000000005     
 chl2c          14  0.39804095000000000        4.6856526101924839E-002  0.39804095000000000        0.0000000000000000        3.7463730268996512E-010
 chl          14   3.0292673245021243E-017   7.6104413993136238E-017  0.39804095000000000     
 chl2c          15  0.25607262500000000        2.0954299823745293E-002  0.25607262500000000        0.0000000000000000        5.4323458438436399E-016
 chl          15   1.9488257065309128E-017   7.6104413993136238E-017  0.25607262500000000     
 chl2c          16  0.71433214999999994        3.7823443882273475E-002  0.71433214999999994        0.0000000000000000        3.9126585160671990E-006
 chl          16   5.4363829672207091E-017   7.6104413993136238E-017  0.71433214999999994     
 chl2c          17  0.62580860000000005        3.7542254757581245E-002  0.62580860000000005        0.0000000000000000        7.8712422153048705E-006
 chl          17   4.7626796774865005E-017   7.6104413993136238E-017  0.62580860000000005     
 chl2c          18  0.47925950000000000        2.5694475239060960E-002  0.47925950000000000        0.0000000000000000        2.4706925397411264E-006
 chl          18   3.6473763398143475E-017   7.6104413993136238E-017  0.47925950000000000     
 chl2c          19  0.63367130000000005        3.7570220750293731E-002  0.63367130000000005        0.0000000000000000        9.2840804349270472E-016
 chl          19   4.8225182950768835E-017   7.6104413993136238E-017  0.63367130000000005     
 chl2c          20  0.50678202500000002        3.7020645196759419E-002  0.50678202500000002        0.0000000000000000        7.0600326313675255E-006
 chl          20   3.8568349034879920E-017   7.6104413993136238E-017  0.50678202500000002     
 chl2c          21  0.71973185000000006        3.7838475073783531E-002  0.71973185000000006        0.0000000000000000        9.3329272539305717E-016
 chl          21   5.4774770676445833E-017   7.6104413993136238E-017  0.71973185000000006     
 chl2c          22  0.64616892500000001        3.7613353106285476E-002  0.64616892500000001        0.0000000000000000        9.3244002537763523E-016
 chl          22   4.9176307377699798E-017   7.6104413993136238E-017  0.64616892500000001     
 chl2c          23  0.41564179999999995        3.2286562315070731E-002  0.41564179999999995        0.0000000000000000        1.6118339525323855E-020
 chl          23   3.1632175620052331E-017   7.6104413993136238E-017  0.41564179999999995     
 chl2c          24  0.57597492500000003        3.7348402796863071E-002  0.57597492500000003        0.0000000000000000        6.5729482920252022E-006
 chl          24   4.3834234141865598E-017   7.6104413993136238E-017  0.57597492500000003     
 chl2c          25  0.31406487500000002        4.5426679235459781E-002  0.31406487500000002        0.0000000000000000        1.2276332784013951E-020
 chl          25   2.3901723267702585E-017   7.6104413993136238E-017  0.31406487500000002     
 chl2c          26  0.49427735000000000        4.7955660680174553E-002  0.49427735000000000        0.0000000000000000        9.3925473854699952E-011
 chl          26   3.7616688071830301E-017   7.6104413993136238E-017  0.49427735000000000     
 chl2c          27  0.30964730000000001        4.5333133499525620E-002  0.30964730000000001        0.0000000000000000        9.0181957927693618E-010
 chl          27   2.3565526311056855E-017   7.6104413993136238E-017  0.30964730000000001     
 chl2c          28  0.28776342500000002        3.1209236063453518E-002  0.28776342500000002        0.0000000000000000        8.8552022517650383E-010
 chl          28   2.1900066828282812E-017   7.6104413993136238E-017  0.28776342500000002     
 chl2c          29  0.68676297499999994        3.7743217595736761E-002  0.68676297499999994        0.0000000000000000        9.3416936067240992E-016
 chl          29   5.2265693764557869E-017   7.6104413993136238E-017  0.68676297499999994     
 chl2c          30  0.38930277499999999        2.5380056985171612E-002  0.38930277499999999        0.0000000000000000        4.5882860317522885E-006
 chl          30   2.9627659557276767E-017   7.6104413993136238E-017  0.38930277499999999     
 chl2c          31  0.63559385000000002        3.7576959810037038E-002  0.63559385000000002        0.0000000000000000        9.3635922540461370E-016
 chl          31   4.8371497491891335E-017   7.6104413993136238E-017  0.63559385000000002     
 chl2c          32  0.24722667500000001        2.0893126428578448E-002  0.24722667500000001        0.0000000000000000        5.4365808198962345E-016
 chl          32   1.8815041224346545E-017   7.6104413993136238E-017  0.24722667500000001     
 chl2c          33  0.60343137499999999        3.7458922634011876E-002  0.60343137499999999        0.0000000000000000        9.2987519926133009E-016
 chl          33   4.5923791179447440E-017   7.6104413993136238E-017  0.60343137499999999     
 chl2c          34  0.38241020000000003        2.5350269098008315E-002  0.38241020000000003        0.0000000000000000        5.3925614937914656E-016
 chl          34   2.9103104175998031E-017   7.6104413993136238E-017  0.38241020000000003     
 chl2c          35  0.49574644999999995        2.5740370148566064E-002  0.49574644999999995        0.0000000000000000        4.2585763125056065E-006
 chl          35   3.7728493066427613E-017   7.6104413993136238E-017  0.49574644999999995     
 chl2c          36  0.69587337500000002        3.7770393924465726E-002  0.69587337500000002        0.0000000000000000        6.6561198579536905E-006
 chl          36   5.2959035417800941E-017   7.6104413993136238E-017  0.69587337500000002     
 chl2c          37  0.33194060000000003        2.1353674699533250E-002  0.33194060000000003        0.0000000000000000        1.4073950183825694E-006
 chl          37   2.5262144843530042E-017   7.6104413993136238E-017  0.33194060000000003     
 chl2c          38  0.38455722500000000        2.1543295686358745E-002  0.38455722500000000        0.0000000000000000        3.9852074664486871E-006
 chl          38   2.9266502255451640E-017   7.6104413993136238E-017  0.38455722500000000     
 chl2c          39  0.47091117500000002        2.5670077108751441E-002  0.47091117500000002        0.0000000000000000        3.1703166530418330E-006
 chl          39   3.5838419016194230E-017   7.6104413993136238E-017  0.47091117500000002     
 chl2c          40  0.66875547499999999        3.7687445774703773E-002  0.66875547499999999        0.0000000000000000        3.9334894571636289E-006
 chl          40   5.0895243529576472E-017   7.6104413993136238E-017  0.66875547499999999     
 chl2c          41  0.44304987499999998        2.5582381488167241E-002  0.44304987499999998        0.0000000000000000        5.3742563721902819E-016
 chl          41   3.3718051106607258E-017   7.6104413993136238E-017  0.44304987499999998     
 chl2c          42  0.76234377499999995        3.7949995630725070E-002  0.76234377499999995        0.0000000000000000        2.9652343784994377E-006
 chl          42   5.8017726257690303E-017   7.6104413993136238E-017  0.76234377499999995     
 chl2c          43  0.29539925000000000        2.1185090152268007E-002  0.29539925000000000        0.0000000000000000        5.4366016314360402E-016
 chl          43   2.2481186815261951E-017   7.6104413993136238E-017  0.29539925000000000     
 chl2c          44  0.62417262500000004        3.7536352708156646E-002  0.62417262500000004        0.0000000000000000        7.2537174926525966E-006
 chl          44   4.7502291856182582E-017   7.6104413993136238E-017  0.62417262500000004     
 chl2c          45  0.37662252499999999        4.6544927192009838E-002  0.37662252499999999        0.0000000000000000        1.4840381790485402E-020
 chl          45   2.8662636561740302E-017   7.6104413993136238E-017  0.37662252499999999     
 chl2c          46  0.51876034999999998        3.7083195475449568E-002  0.51876034999999998        0.0000000000000000        9.3633230130043893E-016
 chl          46   3.9479952439624252E-017   7.6104413993136238E-017  0.51876034999999998     
 chl2c          47  0.61962282499999999        3.7519784612651236E-002  0.61962282499999999        0.0000000000000000        7.9082052604431109E-006
 chl          47   4.7156031993396606E-017   7.6104413993136238E-017  0.61962282499999999     
 chl2c          48  0.71424949999999998        3.7823212136301673E-002  0.71424949999999998        0.0000000000000000        4.9764716943991174E-006
 chl          48   5.4357539642390557E-017   7.6104413993136238E-017  0.71424949999999998     
 chl2c          49  0.53276120000000005        3.7152990741888416E-002  0.53276120000000005        0.0000000000000000        7.8790193536172808E-006
 chl          49   4.0545478924280058E-017   7.6104413993136238E-017  0.53276120000000005     
 chl2c          50  0.38132569999999999        2.1533072915600981E-002  0.38132569999999999        0.0000000000000000        5.4081548172883147E-016
 chl          50   2.9020568939022472E-017   7.6104413993136238E-017  0.38132569999999999     
 chl2c          51  0.22275920000000002        2.0700971146093840E-002  0.22275920000000002        0.0000000000000000        4.1079691307863006E-006
 chl          51   1.6952958377579836E-017   7.6104413993136238E-017  0.22275920000000002     
 chl2c          52  0.63698869999999996        3.7581825176985564E-002  0.63698869999999996        0.0000000000000000        5.4305383666829876E-006
 chl          52   4.8477651733749659E-017   7.6104413993136238E-017  0.63698869999999996     
 chl2c          53  0.75269794999999995        3.7925801262726190E-002  0.75269794999999995        0.0000000000000000        2.1323684888673195E-006
 chl          53   5.7283636398584961E-017   7.6104413993136238E-017  0.75269794999999995     
 chl2c          54  0.51861124999999997        3.7082433371327092E-002  0.51861124999999997        0.0000000000000000        7.8390847754098220E-006
 chl          54   3.9468605271497872E-017   7.6104413993136238E-017  0.51861124999999997     
 chl2c          55  0.57808280000000001        3.7357235588660491E-002  0.57808280000000001        0.0000000000000000        9.3785076601066897E-016
 chl          55   4.3994652733511377E-017   7.6104413993136238E-017  0.57808280000000001     
 chl2c          56  0.61626080000000005        3.7507394187257688E-002  0.61626080000000005        0.0000000000000000        6.0947999569977819E-006
 chl          56   4.6900167050941339E-017   7.6104413993136238E-017  0.61626080000000005     
 chl2c          57  0.68163462500000005        3.7727617852646313E-002  0.68163462500000005        0.0000000000000000        9.3832806498680291E-016
 chl          57   5.1875403693056174E-017   7.6104413993136238E-017  0.68163462500000005     
 chl2c          58  0.69416802499999997        3.7765358178394853E-002  0.69416802499999997        0.0000000000000000        9.3244002537763523E-016
 chl          58   5.2829250755397746E-017   7.6104413993136238E-017  0.69416802499999997     
 chl2c          59  0.53705127500000005        3.7173699120809672E-002  0.53705127500000005        0.0000000000000000        9.3909862132222778E-016
 chl          59   4.0871972568141665E-017   7.6104413993136238E-017  0.53705127500000005     
 chl2c          60  0.64452155000000000        3.7607757740906807E-002  0.64452155000000000        0.0000000000000000        9.2749835364997745E-016
 chl          60   4.9050934868697857E-017   7.6104413993136238E-017  0.64452155000000000     
 chl2c          61  0.70794139999999994        3.7805373434125003E-002  0.70794139999999994        0.0000000000000000        7.4132971312956819E-006
 chl          61   5.3877465388480457E-017   7.6104413993136238E-017  0.70794139999999994     
 chl2c          62  0.76481592499999995        3.7956103087269030E-002  0.76481592499999995        0.0000000000000000        4.7656129546819097E-006
 chl          62   5.8205867784743429E-017   7.6104413993136238E-017  0.76481592499999995     
 chl2c          63  0.72597904999999996        3.7855601011927406E-002  0.72597904999999996        0.0000000000000000        9.2795665494412045E-016
 chl          63   5.5250210171543748E-017   7.6104413993136238E-017  0.72597904999999996     
 chl2c          64  0.48435739999999999        2.5708982294816416E-002  0.48435739999999999        0.0000000000000000        4.3942819436045213E-006
 chl          64   3.6861736090239086E-017   7.6104413993136238E-017  0.48435739999999999     
 chl2c          65  0.76379975000000000        3.7953597170552002E-002  0.76379975000000000        0.0000000000000000        9.3121429485870950E-016
 chl          65   5.8128532381853954E-017   7.6104413993136238E-017  0.76379975000000000     
 chl2c          66  0.35213202499999996        3.1840477731474713E-002  0.35213202499999996        0.0000000000000000        9.6051997007176777E-011
 chl          66   2.6798801410841398E-017   7.6104413993136238E-017  0.35213202499999996     
 chl2c          67  0.75736760000000003        3.7937587124568600E-002  0.75736760000000003        0.0000000000000000        7.8774091996265530E-006
 chl          67   5.7639017375388009E-017   7.6104413993136238E-017  0.75736760000000003     
 chl2c          68  0.72590779999999999        3.7855407263856986E-002  0.72590779999999999        0.0000000000000000        9.3244002537763523E-016
 chl          68   5.5244787732046738E-017   7.6104413993136238E-017  0.72590779999999999     
 chl2c          69  0.45524217500000003        2.1732330561541505E-002  0.45524217500000003        0.0000000000000000        5.3964195078796286E-016
 chl          69   3.4645938953335780E-017   7.6104413993136238E-017  0.45524217500000003     
 chl2c          70  0.48694062500000002        3.2658010878182209E-002  0.48694062500000002        0.0000000000000000        1.0953867827550615E-009
 chl          70   3.7058330915076509E-017   7.6104413993136238E-017  0.48694062500000002     
 chl2c          71  0.23986107500000001        4.3481058864416305E-002  0.23986107500000001        0.0000000000000000        1.3647476066618867E-020
 chl          71   1.8254486552638700E-017   7.6104413993136238E-017  0.23986107500000001     
 chl2c          72  0.62790522500000001        3.7549776402781669E-002  0.62790522500000001        0.0000000000000000        6.1896773387090241E-006
 chl          72   4.7786359191853360E-017   7.6104413993136238E-017  0.62790522500000001     
 chl2c          73  0.35362212500000001        3.1852614277819484E-002  0.35362212500000001        0.0000000000000000        9.2027475462054354E-011
 chl          73   2.6912204598132573E-017   7.6104413993136238E-017  0.35362212500000001     
 chl2c          74  0.64719590000000005        3.7616827685877569E-002  0.64719590000000005        0.0000000000000000        9.3433171110298633E-016
 chl          74   4.9254464708260406E-017   7.6104413993136238E-017  0.64719590000000005     
 chl2c          75  0.71554212500000003        3.7826830779512356E-002  0.71554212500000003        0.0000000000000000        6.9012503312047734E-006
 chl          75   5.4455914110528444E-017   7.6104413993136238E-017  0.71554212500000003     
 chl2c          76  0.55513977500000000        3.7257729557919804E-002  0.55513977500000000        0.0000000000000000        9.3244002537763523E-016
 chl          76   4.2248587260656505E-017   7.6104413993136238E-017  0.55513977500000000     
 chl2c          77  0.52973029999999999        3.7138172437479272E-002  0.52973029999999999        0.0000000000000000        9.2657778404485645E-016
 chl          77   4.0314814055908258E-017   7.6104413993136238E-017  0.52973029999999999     
 chl2c          78  0.45117492500000000        4.7515248899399322E-002  0.45117492500000000        0.0000000000000000        1.3567494548754993E-019
 chl          78   3.4336403275522193E-017   7.6104413993136238E-017  0.45117492500000000     
 prod   5.5374381542963772E-011   0.0000000000000000        10.000000000000000     
 dcdom   7.0071416986382546E-014  -2.0126310839590485E-022
 chl2c           1  0.60826437499999997        3.7477407714772232E-002  0.60826437499999997        0.0000000000000000        9.3488744118868713E-016
 chl           1   1.0415606431129760E-023   1.7123485870974708E-023  0.60826437499999997     
 chl2c           2  0.48302390000000001        3.2640259920490348E-002  0.48302390000000001        0.0000000000000000        4.1616453394616388E-021
 chl           2   8.2710529269930997E-024   1.7123485870974708E-023  0.48302390000000001     
 chl2c           3  0.75128689999999998        3.7922212503796585E-002  0.75128689999999998        0.0000000000000000        7.4226763881187739E-006
 chl           3   1.2864650617198387E-023   1.7123485870974708E-023  0.75128689999999998     
 chl2c           4  0.77318742499999993        3.7976509103863923E-002  0.77318742499999993        0.0000000000000000        9.3488744118868713E-016
 chl           4   1.3239663947602816E-023   1.7123485870974708E-023  0.77318742499999993     
 chl2c           5  0.48489679999999996        2.5710500362372445E-002  0.48489679999999996        0.0000000000000000        5.3956964183503835E-016
 chl           5   8.3031235036808481E-024   1.7123485870974708E-023  0.48489679999999996     
 chl2c           6  0.29222855000000003        3.1261039902252048E-002  0.29222855000000003        0.0000000000000000        5.4940201631952661E-020
 chl           6   5.0039714470204268E-024   1.7123485870974708E-023  0.29222855000000003     
 chl2c           7  0.22770740000000000        4.3064391842467263E-002  0.22770740000000000        0.0000000000000000        4.0608705332600629E-021
 chl           7   3.8991444466163864E-024   1.7123485870974708E-023  0.22770740000000000     
 chl2c           8  0.49578364999999996        4.7969800906495587E-002  0.49578364999999996        0.0000000000000000        4.3149624435757505E-021
 chl           8   8.4895443258352685E-024   1.7123485870974708E-023  0.49578364999999996     
 chl2c           9  0.28700202499999999        2.4803669054600401E-002  0.28700202499999999        0.0000000000000000        5.4184081042678104E-016
 chl           9   4.9144751200286296E-024   1.7123485870974708E-023  0.28700202499999999     
 chl2c          10  0.39094662499999999        2.5387016219684602E-002  0.39094662499999999        0.0000000000000000        5.4184867389951898E-016
 chl          10   6.6943690094927475E-024   1.7123485870974708E-023  0.39094662499999999     
 chl2c          11  0.49737575000000001        2.1820572217820047E-002  0.49737575000000001        0.0000000000000000        4.4806834099493278E-006
 chl          11   8.5168066276904478E-024   1.7123485870974708E-023  0.49737575000000001     
 chl2c          12  0.30768942500000002        4.5290941298723353E-002  0.30768942500000002        0.0000000000000000        6.9775670995317674E-012
 chl          12   5.2687155216358324E-024   1.7123485870974708E-023  0.30768942500000002     
 chl2c          13  0.75666275000000005        3.7935816987997487E-002  0.75666275000000005        0.0000000000000000        5.6025681324392556E-006
 chl          13   1.2956703908717868E-023   1.7123485870974708E-023  0.75666275000000005     
 chl2c          14  0.39804095000000000        4.6856526101924839E-002  0.39804095000000000        0.0000000000000000        1.8374402615795829E-010
 chl          14   6.8158485833943504E-024   1.7123485870974708E-023  0.39804095000000000     
 chl2c          15  0.25607262500000000        2.0954299823745293E-002  0.25607262500000000        0.0000000000000000        5.4323458438436399E-016
 chl          15   4.3848559761309045E-024   1.7123485870974708E-023  0.25607262500000000     
 chl2c          16  0.71433214999999994        3.7823443882273475E-002  0.71433214999999994        0.0000000000000000        3.1287620929994287E-006
 chl          16   1.2231856477707985E-023   1.7123485870974708E-023  0.71433214999999994     
 chl2c          17  0.62580860000000005        3.7542254757581245E-002  0.62580860000000005        0.0000000000000000        7.7471902682260697E-006
 chl          17   1.0716024720034463E-023   1.7123485870974708E-023  0.62580860000000005     
 chl2c          18  0.47925950000000000        2.5694475239060960E-002  0.47925950000000000        0.0000000000000000        2.9037311117716997E-006
 chl          18   8.2065932767804036E-024   1.7123485870974708E-023  0.47925950000000000     
 chl2c          19  0.63367130000000005        3.7570220750293731E-002  0.63367130000000005        0.0000000000000000        9.2840804349270472E-016
 chl          19   1.0850661552392175E-023   1.7123485870974708E-023  0.63367130000000005     
 chl2c          20  0.50678202500000002        3.7020645196759419E-002  0.50678202500000002        0.0000000000000000        6.6221338440176234E-006
 chl          20   8.6778748447514520E-024   1.7123485870974708E-023  0.50678202500000002     
 chl2c          21  0.71973185000000006        3.7838475073783531E-002  0.71973185000000006        0.0000000000000000        9.3329272539305717E-016
 chl          21   1.2324318164365489E-023   1.7123485870974708E-023  0.71973185000000006     
 chl2c          22  0.64616892500000001        3.7613353106285476E-002  0.64616892500000001        0.0000000000000000        9.3488744118868713E-016
 chl          22   1.1064664457500416E-023   1.7123485870974708E-023  0.64616892500000001     
 chl2c          23  0.41564179999999995        3.2286562315070731E-002  0.41564179999999995        0.0000000000000000        5.9408267394180852E-021
 chl          23   7.1172364896864937E-024   1.7123485870974708E-023  0.41564179999999995     
 chl2c          24  0.57597492500000003        3.7348402796863071E-002  0.57597492500000003        0.0000000000000000        6.7715637402830596E-006
 chl          24   9.8626984902732180E-024   1.7123485870974708E-023  0.57597492500000003     
 chl2c          25  0.31406487500000002        4.5426679235459781E-002  0.31406487500000002        0.0000000000000000        4.5247368642215237E-021
 chl          25   5.3778854496319380E-024   1.7123485870974708E-023  0.31406487500000002     
 chl2c          26  0.49427735000000000        4.7955660680174553E-002  0.49427735000000000        0.0000000000000000        3.3874168792479646E-011
 chl          26   8.4637512190678210E-024   1.7123485870974708E-023  0.49427735000000000     
 chl2c          27  0.30964730000000001        4.5333133499525620E-002  0.30964730000000001        0.0000000000000000        3.4369925737619853E-010
 chl          27   5.3022411665354668E-024   1.7123485870974708E-023  0.30964730000000001     
 chl2c          28  0.28776342500000002        3.1209236063453518E-002  0.28776342500000002        0.0000000000000000        3.3308367588116819E-010
 chl          28   4.9275129421707906E-024   1.7123485870974708E-023  0.28776342500000002     
 chl2c          29  0.68676297499999994        3.7743217595736761E-002  0.68676297499999994        0.0000000000000000        9.3416936067240992E-016
 chl          29   1.1759776099121056E-023   1.7123485870974708E-023  0.68676297499999994     
 chl2c          30  0.38930277499999999        2.5380056985171612E-002  0.38930277499999999        0.0000000000000000        4.5039832120582183E-006
 chl          30   6.6662205672437448E-024   1.7123485870974708E-023  0.38930277499999999     
 chl2c          31  0.63559385000000002        3.7576959810037038E-002  0.63559385000000002        0.0000000000000000        9.3635922540461370E-016
 chl          31   1.0883582310153418E-023   1.7123485870974708E-023  0.63559385000000002     
 chl2c          32  0.24722667500000001        2.0893126428578448E-002  0.24722667500000001        0.0000000000000000        5.4365808198962345E-016
 chl          32   4.2333824762905558E-024   1.7123485870974708E-023  0.24722667500000001     
 chl2c          33  0.60343137499999999        3.7458922634011876E-002  0.60343137499999999        0.0000000000000000        9.2987519926133009E-016
 chl          33   1.0332848623915341E-023   1.7123485870974708E-023  0.60343137499999999     
 chl2c          34  0.38241020000000003        2.5350269098008315E-002  0.38241020000000003        0.0000000000000000        5.3925614937914656E-016
 chl          34   6.5481956566166126E-024   1.7123485870974708E-023  0.38241020000000003     
 chl2c          35  0.49574644999999995        2.5740370148566064E-002  0.49574644999999995        0.0000000000000000        4.3044679994677186E-006
 chl          35   8.4889073321608685E-024   1.7123485870974708E-023  0.49574644999999995     
 chl2c          36  0.69587337500000002        3.7770393924465726E-002  0.69587337500000002        0.0000000000000000        6.8419620186623865E-006
 chl          36   1.1915777904799984E-023   1.7123485870974708E-023  0.69587337500000002     
 chl2c          37  0.33194060000000003        2.1353674699533250E-002  0.33194060000000003        0.0000000000000000        1.9317717953291059E-006
 chl          37   5.6839801741028678E-024   1.7123485870974708E-023  0.33194060000000003     
 chl2c          38  0.38455722500000000        2.1543295686358745E-002  0.38455722500000000        0.0000000000000000        4.1233775266715796E-006
 chl          38   6.5849602088687417E-024   1.7123485870974708E-023  0.38455722500000000     
 chl2c          39  0.47091117500000002        2.5670077108751441E-002  0.47091117500000002        0.0000000000000000        3.4904081883758706E-006
 chl          39   8.0636408515965987E-024   1.7123485870974708E-023  0.47091117500000002     
 chl2c          40  0.66875547499999999        3.7687445774703773E-002  0.66875547499999999        0.0000000000000000        3.1504344581873830E-006
 chl          40   1.1451424927299479E-023   1.7123485870974708E-023  0.66875547499999999     
 chl2c          41  0.44304987499999998        2.5582381488167241E-002  0.44304987499999998        0.0000000000000000        5.3742563721902819E-016
 chl          41   7.5865582746996099E-024   1.7123485870974708E-023  0.44304987499999998     
 chl2c          42  0.76234377499999995        3.7949995630725070E-002  0.76234377499999995        0.0000000000000000        2.1542165500441679E-006
 chl          42   1.3053982860038021E-023   1.7123485870974708E-023  0.76234377499999995     
 chl2c          43  0.29539925000000000        2.1185090152268007E-002  0.29539925000000000        0.0000000000000000        5.4366016314360402E-016
 chl          43   5.0582648836715258E-024   1.7123485870974708E-023  0.29539925000000000     
 chl2c          44  0.62417262500000004        3.7536352708156646E-002  0.62417262500000004        0.0000000000000000        6.8777335703592214E-006
 chl          44   1.0688011125236695E-023   1.7123485870974708E-023  0.62417262500000004     
 chl2c          45  0.37662252499999999        4.6544927192009838E-002  0.37662252499999999        0.0000000000000000        5.4697946857882416E-021
 chl          45   6.4490904855283186E-024   1.7123485870974708E-023  0.37662252499999999     
 chl2c          46  0.51876034999999998        3.7083195475449568E-002  0.51876034999999998        0.0000000000000000        9.3633230130043893E-016
 chl          46   8.8829855236468938E-024   1.7123485870974708E-023  0.51876034999999998     
 chl2c          47  0.61962282499999999        3.7519784612651236E-002  0.61962282499999999        0.0000000000000000        7.7626539322368512E-006
 chl          47   1.0610102689220933E-023   1.7123485870974708E-023  0.61962282499999999     
 chl2c          48  0.71424949999999998        3.7823212136301673E-002  0.71424949999999998        0.0000000000000000        4.2438366526824166E-006
 chl          48   1.2230441221600749E-023   1.7123485870974708E-023  0.71424949999999998     
 chl2c          49  0.53276120000000005        3.7152990741888416E-002  0.53276120000000005        0.0000000000000000        7.7337196310785419E-006
 chl          49   9.1227288808035312E-024   1.7123485870974708E-023  0.53276120000000005     
 chl2c          50  0.38132569999999999        2.1533072915600981E-002  0.38132569999999999        0.0000000000000000        5.4081548172883147E-016
 chl          50   6.5296252361895399E-024   1.7123485870974708E-023  0.38132569999999999     
 chl2c          51  0.22275920000000002        2.0700971146093840E-002  0.22275920000000002        0.0000000000000000        4.2122301723999078E-006
 chl          51   3.8144140138296291E-024   1.7123485870974708E-023  0.22275920000000002     
 chl2c          52  0.63698869999999996        3.7581825176985564E-002  0.63698869999999996        0.0000000000000000        4.7566871281040805E-006
 chl          52   1.0907467004420547E-023   1.7123485870974708E-023  0.63698869999999996     
 chl2c          53  0.75269794999999995        3.7925801262726190E-002  0.75269794999999995        0.0000000000000000        1.3397570030038208E-006
 chl          53   1.2888812711936626E-023   1.7123485870974708E-023  0.75269794999999995     
 chl2c          54  0.51861124999999997        3.7082433371327092E-002  0.51861124999999997        0.0000000000000000        7.6941377210011694E-006
 chl          54   8.8804324119035314E-024   1.7123485870974708E-023  0.51861124999999997     
 chl2c          55  0.57808280000000001        3.7357235588660491E-002  0.57808280000000001        0.0000000000000000        9.3785076601066897E-016
 chl          55   9.8987926580534975E-024   1.7123485870974708E-023  0.57808280000000001     
 chl2c          56  0.61626080000000005        3.7507394187257688E-002  0.61626080000000005        0.0000000000000000        6.4037982648832987E-006
 chl          56   1.0552533101635570E-023   1.7123485870974708E-023  0.61626080000000005     
 chl2c          57  0.68163462500000005        3.7727617852646313E-002  0.68163462500000005        0.0000000000000000        9.3832806498680291E-016
 chl          57   1.1671960870354643E-023   1.7123485870974708E-023  0.68163462500000005     
 chl2c          58  0.69416802499999997        3.7765358178394853E-002  0.69416802499999997        0.0000000000000000        9.3488744118868713E-016
 chl          58   1.1886576368169918E-023   1.7123485870974708E-023  0.69416802499999997     
 chl2c          59  0.53705127500000005        3.7173699120809672E-002  0.53705127500000005        0.0000000000000000        9.3909862132222778E-016
 chl          59   9.1961899194514534E-024   1.7123485870974708E-023  0.53705127500000005     
 chl2c          60  0.64452155000000000        3.7607757740906807E-002  0.64452155000000000        0.0000000000000000        9.2749835364997745E-016
 chl          60   1.1036455654963719E-023   1.7123485870974708E-023  0.64452155000000000     
 chl2c          61  0.70794139999999994        3.7805373434125003E-002  0.70794139999999994        0.0000000000000000        7.4329418597563987E-006
 chl          61   1.2122424560378052E-023   1.7123485870974708E-023  0.70794139999999994     
 chl2c          62  0.76481592499999995        3.7956103087269030E-002  0.76481592499999995        0.0000000000000000        4.0260995698484787E-006
 chl          62   1.3096314685633951E-023   1.7123485870974708E-023  0.76481592499999995     
 chl2c          63  0.72597904999999996        3.7855601011927406E-002  0.72597904999999996        0.0000000000000000        9.2795665494412045E-016
 chl          63   1.2431292005298641E-023   1.7123485870974708E-023  0.72597904999999996     
 chl2c          64  0.48435739999999999        2.5708982294816416E-002  0.48435739999999999        0.0000000000000000        4.3810892626580782E-006
 chl          64   8.2938870954020443E-024   1.7123485870974708E-023  0.48435739999999999     
 chl2c          65  0.76379975000000000        3.7953597170552002E-002  0.76379975000000000        0.0000000000000000        9.3121429485870950E-016
 chl          65   1.3078914227379014E-023   1.7123485870974708E-023  0.76379975000000000     
 chl2c          66  0.35213202499999996        3.1840477731474713E-002  0.35213202499999996        0.0000000000000000        3.5806703795724000E-011
 chl          66   6.0297277548052116E-024   1.7123485870974708E-023  0.35213202499999996     
 chl2c          67  0.75736760000000003        3.7937587124568600E-002  0.75736760000000003        0.0000000000000000        7.7318914136754145E-006
 chl          67   1.2968773397734024E-023   1.7123485870974708E-023  0.75736760000000003     
 chl2c          68  0.72590779999999999        3.7855407263856986E-002  0.72590779999999999        0.0000000000000000        9.3488744118868713E-016
 chl          68   1.2430071956930334E-023   1.7123485870974708E-023  0.72590779999999999     
 chl2c          69  0.45524217500000003        2.1732330561541505E-002  0.45524217500000003        0.0000000000000000        5.3964195078796286E-016
 chl          69   7.7953329514842963E-024   1.7123485870974708E-023  0.45524217500000003     
 chl2c          70  0.48694062500000002        3.2658010878182209E-002  0.48694062500000002        0.0000000000000000        4.1181689091441568E-010
 chl          70   8.3381209121910941E-024   1.7123485870974708E-023  0.48694062500000002     
 chl2c          71  0.23986107500000001        4.3481058864416305E-002  0.23986107500000001        0.0000000000000000        5.0301125062103276E-021
 chl          71   4.1072577287593045E-024   1.7123485870974708E-023  0.23986107500000001     
 chl2c          72  0.62790522500000001        3.7549776402781669E-002  0.62790522500000001        0.0000000000000000        5.6134287944988325E-006
 chl          72   1.0751926248598695E-023   1.7123485870974708E-023  0.62790522500000001     
 chl2c          73  0.35362212500000001        3.1852614277819484E-002  0.35362212500000001        0.0000000000000000        3.7095302638875456E-011
 chl          73   6.0552434611015522E-024   1.7123485870974708E-023  0.35362212500000001     
 chl2c          74  0.64719590000000005        3.7616827685877569E-002  0.64719590000000005        0.0000000000000000        9.3433171110298633E-016
 chl          74   1.1082249849402760E-023   1.7123485870974708E-023  0.64719590000000005     
 chl2c          75  0.71554212500000003        3.7826830779512356E-002  0.71554212500000003        0.0000000000000000        7.0372407136240201E-006
 chl          75   1.2252575467524719E-023   1.7123485870974708E-023  0.71554212500000003     
 chl2c          76  0.55513977500000000        3.7257729557919804E-002  0.55513977500000000        0.0000000000000000        9.3441853230459223E-016
 chl          76   9.5059280936285784E-024   1.7123485870974708E-023  0.55513977500000000     
 chl2c          77  0.52973029999999999        3.7138172437479272E-002  0.52973029999999999        0.0000000000000000        9.2657778404485645E-016
 chl          77   9.0708293074771935E-024   1.7123485870974708E-023  0.52973029999999999     
 chl2c          78  0.45117492500000000        4.7515248899399322E-002  0.45117492500000000        0.0000000000000000        5.2681593813440618E-020
 chl          78   7.7256874535755734E-024   1.7123485870974708E-023  0.45117492500000000     
 prod   2.0409269279136827E-011   0.0000000000000000        10.000000000000000     
 dcdom   2.5804885431308295E-014  -4.5284180143303492E-029
 chl2c           1  0.60826437499999997        3.7477407714772232E-002  0.60826437499999997        0.0000000000000000        9.3573127378285871E-016
 chl           1   1.6664965223658535E-030   2.7397569064699108E-030  0.60826437499999997     
 chl2c           2  0.48302390000000001        3.2640259920490348E-002  0.48302390000000001        0.0000000000000000        1.7840066535810532E-021
 chl           2   1.3233680660150316E-030   2.7397569064699108E-030  0.48302390000000001     
 chl2c           3  0.75128689999999998        3.7922212503796585E-002  0.75128689999999998        0.0000000000000000        7.4349831358155651E-006
 chl           3   2.0583434730153693E-030   2.7397569064699108E-030  0.75128689999999998     
 chl2c           4  0.77318742499999993        3.7976509103863923E-002  0.77318742499999993        0.0000000000000000        9.3870557798159626E-016
 chl           4   2.1183455876394358E-030   2.7397569064699108E-030  0.77318742499999993     
 chl2c           5  0.48489679999999996        2.5710500362372445E-002  0.48489679999999996        0.0000000000000000        5.3956964183503835E-016
 chl           5   1.3284993567251589E-030   2.7397569064699108E-030  0.48489679999999996     
 chl2c           6  0.29222855000000003        3.1261039902252048E-002  0.29222855000000003        0.0000000000000000        2.6144744899089582E-020
 chl           6   8.0063518813018769E-031   2.7397569064699108E-030  0.29222855000000003     
 chl2c           7  0.22770740000000000        4.3064391842467263E-002  0.22770740000000000        0.0000000000000000        1.7408065087060571E-021
 chl           7   6.2386292180430659E-031   2.7397569064699108E-030  0.22770740000000000     
 chl2c           8  0.49578364999999996        4.7969800906495587E-002  0.49578364999999996        0.0000000000000000        1.8497306485332014E-021
 chl           8   1.3583266792023608E-030   2.7397569064699108E-030  0.49578364999999996     
 chl2c           9  0.28700202499999999        2.4803669054600401E-002  0.28700202499999999        0.0000000000000000        5.4184081042678104E-016
 chl           9   7.8631578016460000E-031   2.7397569064699108E-030  0.28700202499999999     
 chl2c          10  0.39094662499999999        2.5387016219684602E-002  0.39094662499999999        0.0000000000000000        5.4184867389951898E-016
 chl          10   1.0710987159048522E-030   2.7397569064699108E-030  0.39094662499999999     
 chl2c          11  0.49737575000000001        2.1820572217820047E-002  0.49737575000000001        0.0000000000000000        4.4271470579753469E-006
 chl          11   1.3626886461731518E-030   2.7397569064699108E-030  0.49737575000000001     
 chl2c          12  0.30768942500000002        4.5290941298723353E-002  0.30768942500000002        0.0000000000000000        1.5248998284156537E-012
 chl          12   8.4299422719150570E-031   2.7397569064699108E-030  0.30768942500000002     
 chl2c          13  0.75666275000000005        3.7935816987997487E-002  0.75666275000000005        0.0000000000000000        5.1320939507703441E-006
 chl          13   2.0730719951810157E-030   2.7397569064699108E-030  0.75666275000000005     
 chl2c          14  0.39804095000000000        4.6856526101924839E-002  0.39804095000000000        0.0000000000000000        9.9370509738223999E-011
 chl          14   1.0905354418203445E-030   2.7397569064699108E-030  0.39804095000000000     
 chl2c          15  0.25607262500000000        2.0954299823745293E-002  0.25607262500000000        0.0000000000000000        5.4323458438436399E-016
 chl          15   7.0157674290162950E-031   2.7397569064699108E-030  0.25607262500000000     
 chl2c          16  0.71433214999999994        3.7823443882273475E-002  0.71433214999999994        0.0000000000000000        2.5490197935535108E-006
 chl          16   1.9570964414760002E-030   2.7397569064699108E-030  0.71433214999999994     
 chl2c          17  0.62580860000000005        3.7542254757581245E-002  0.62580860000000005        0.0000000000000000        7.6726695046218693E-006
 chl          17   1.7145634339782660E-030   2.7397569064699108E-030  0.62580860000000005     
 chl2c          18  0.47925950000000000        2.5694475239060960E-002  0.47925950000000000        0.0000000000000000        3.1724831144808657E-006
 chl          18   1.3130545251163163E-030   2.7397569064699108E-030  0.47925950000000000     
 chl2c          19  0.63367130000000005        3.7570220750293731E-002  0.63367130000000005        0.0000000000000000        9.2840804349270472E-016
 chl          19   1.7361053206067670E-030   2.7397569064699108E-030  0.63367130000000005     
 chl2c          20  0.50678202500000002        3.7020645196759419E-002  0.50678202500000002        0.0000000000000000        6.2630444754620866E-006
 chl          20   1.3884595530685570E-030   2.7397569064699108E-030  0.50678202500000002     
 chl2c          21  0.71973185000000006        3.7838475073783531E-002  0.71973185000000006        0.0000000000000000        9.3329272539305717E-016
 chl          21   1.9718903068438660E-030   2.7397569064699108E-030  0.71973185000000006     
 chl2c          22  0.64616892500000001        3.7613353106285476E-002  0.64616892500000001        0.0000000000000000        9.3808881612213338E-016
 chl          22   1.7703457750149877E-030   2.7397569064699108E-030  0.64616892500000001     
 chl2c          23  0.41564179999999995        3.2286562315070731E-002  0.41564179999999995        0.0000000000000000        2.5467076392740805E-021
 chl          23   1.1387574921675853E-030   2.7397569064699108E-030  0.41564179999999995     
 chl2c          24  0.57597492500000003        3.7348402796863071E-002  0.57597492500000003        0.0000000000000000        6.8725388157258985E-006
 chl          24   1.5780312787222389E-030   2.7397569064699108E-030  0.57597492500000003     
 chl2c          25  0.31406487500000002        4.5426679235459781E-002  0.31406487500000002        0.0000000000000000        1.9396568066914202E-021
 chl          25   8.6046141036085926E-031   2.7397569064699108E-030  0.31406487500000002     
 chl2c          26  0.49427735000000000        4.7955660680174553E-002  0.49427735000000000        0.0000000000000000        1.4257052297844903E-011
 chl          26   1.3541997833741454E-030   2.7397569064699108E-030  0.49427735000000000     
 chl2c          27  0.30964730000000001        4.5333133499525620E-002  0.30964730000000001        0.0000000000000000        1.6127406232095020E-010
 chl          27   8.4835832874476041E-031   2.7397569064699108E-030  0.30964730000000001     
 chl2c          28  0.28776342500000002        3.1209236063453518E-002  0.28776342500000002        0.0000000000000000        1.5397813263603856E-010
 chl          28   7.8840183107318624E-031   2.7397569064699108E-030  0.28776342500000002     
 chl2c          29  0.68676297499999994        3.7743217595736761E-002  0.68676297499999994        0.0000000000000000        9.3416936067240992E-016
 chl          29   1.8815636038640724E-030   2.7397569064699108E-030  0.68676297499999994     
 chl2c          30  0.38930277499999999        2.5380056985171612E-002  0.38930277499999999        0.0000000000000000        4.4424745921493526E-006
 chl          30   1.0665949665141517E-030   2.7397569064699108E-030  0.38930277499999999     
 chl2c          31  0.63559385000000002        3.7576959810037038E-002  0.63559385000000002        0.0000000000000000        9.3635922540461370E-016
 chl          31   1.7413726402473004E-030   2.7397569064699108E-030  0.63559385000000002     
 chl2c          32  0.24722667500000001        2.0893126428578448E-002  0.24722667500000001        0.0000000000000000        5.4365808198962345E-016
 chl          32   6.7734099029484203E-031   2.7397569064699108E-030  0.24722667500000001     
 chl2c          33  0.60343137499999999        3.7458922634011876E-002  0.60343137499999999        0.0000000000000000        9.2987519926133009E-016
 chl          33   1.6532552772368845E-030   2.7397569064699108E-030  0.60343137499999999     
 chl2c          34  0.38241020000000003        2.5350269098008315E-002  0.38241020000000003        0.0000000000000000        5.3925614937914656E-016
 chl          34   1.0477109865545401E-030   2.7397569064699108E-030  0.38241020000000003     
 chl2c          35  0.49574644999999995        2.5740370148566064E-002  0.49574644999999995        0.0000000000000000        4.3081162028657147E-006
 chl          35   1.3582247602454402E-030   2.7397569064699108E-030  0.49574644999999995     
 chl2c          36  0.69587337500000002        3.7770393924465726E-002  0.69587337500000002        0.0000000000000000        6.9343032555275765E-006
 chl          36   1.9065238851847761E-030   2.7397569064699108E-030  0.69587337500000002     
 chl2c          37  0.33194060000000003        2.1353674699533250E-002  0.33194060000000003        0.0000000000000000        2.2891445165534123E-006
 chl          37   9.0943655138776608E-031   2.7397569064699108E-030  0.33194060000000003     
 chl2c          38  0.38455722500000000        2.1543295686358745E-002  0.38455722500000000        0.0000000000000000        4.1827560469522599E-006
 chl          38   1.0535933131266534E-030   2.7397569064699108E-030  0.38455722500000000     
 chl2c          39  0.47091117500000002        2.5670077108751441E-002  0.47091117500000002        0.0000000000000000        3.6724772230873978E-006
 chl          39   1.2901821440401108E-030   2.7397569064699108E-030  0.47091117500000002     
 chl2c          40  0.66875547499999999        3.7687445774703773E-002  0.66875547499999999        0.0000000000000000        2.5709939113034069E-006
 chl          40   1.8322274313708156E-030   2.7397569064699108E-030  0.66875547499999999     
 chl2c          41  0.44304987499999998        2.5582381488167241E-002  0.44304987499999998        0.0000000000000000        5.3742563721902819E-016
 chl          41   1.2138489549418806E-030   2.7397569064699108E-030  0.44304987499999998     
 chl2c          42  0.76234377499999995        3.7949995630725070E-002  0.76234377499999995        0.0000000000000000        1.5690212698239650E-006
 chl          42   2.0886366226605934E-030   2.7397569064699108E-030  0.76234377499999995     
 chl2c          43  0.29539925000000000        2.1185090152268007E-002  0.29539925000000000        0.0000000000000000        5.4366016314360402E-016
 chl          43   8.0932213535353175E-031   2.7397569064699108E-030  0.29539925000000000     
 chl2c          44  0.62417262500000004        3.7536352708156646E-002  0.62417262500000004        0.0000000000000000        6.5670446245513245E-006
 chl          44   1.7100812601732039E-030   2.7397569064699108E-030  0.62417262500000004     
 chl2c          45  0.37662252499999999        4.6544927192009838E-002  0.37662252499999999        0.0000000000000000        2.3447849467512965E-021
 chl          45   1.0318541640008866E-030   2.7397569064699108E-030  0.37662252499999999     
 chl2c          46  0.51876034999999998        3.7083195475449568E-002  0.51876034999999998        0.0000000000000000        9.3633230130043893E-016
 chl          46   1.4212772517152482E-030   2.7397569064699108E-030  0.51876034999999998     
 chl2c          47  0.61962282499999999        3.7519784612651236E-002  0.61962282499999999        0.0000000000000000        7.6560784762587666E-006
 chl          47   1.6976159142001470E-030   2.7397569064699108E-030  0.61962282499999999     
 chl2c          48  0.71424949999999998        3.7823212136301673E-002  0.71424949999999998        0.0000000000000000        3.6819429827540001E-006
 chl          48   1.9568700005676806E-030   2.7397569064699108E-030  0.71424949999999998     
 chl2c          49  0.53276120000000005        3.7152990741888416E-002  0.53276120000000005        0.0000000000000000        7.6268654754843834E-006
 chl          49   1.4596361771991975E-030   2.7397569064699108E-030  0.53276120000000005     
 chl2c          50  0.38132569999999999        2.1533072915600981E-002  0.38132569999999999        0.0000000000000000        5.4081548172883147E-016
 chl          50   1.0447397201894732E-030   2.7397569064699108E-030  0.38132569999999999     
 chl2c          51  0.22275920000000002        2.0700971146093840E-002  0.22275920000000002        0.0000000000000000        4.2505387301339158E-006
 chl          51   6.1030605667971219E-031   2.7397569064699108E-030  0.22275920000000002     
 chl2c          52  0.63698869999999996        3.7581825176985564E-002  0.63698869999999996        0.0000000000000000        4.2378262252724906E-006
 chl          52   1.7451941901682899E-030   2.7397569064699108E-030  0.63698869999999996     
 chl2c          53  0.75269794999999995        3.7925801262726190E-002  0.75269794999999995        0.0000000000000000        7.7947146068069064E-007
 chl          53   2.0622094069982433E-030   2.7397569064699108E-030  0.75269794999999995     
 chl2c          54  0.51861124999999997        3.7082433371327092E-002  0.51861124999999997        0.0000000000000000        7.5871190226762918E-006
 chl          54   1.4208687539604935E-030   2.7397569064699108E-030  0.51861124999999997     
 chl2c          55  0.57808280000000001        3.7357235588660491E-002  0.57808280000000001        0.0000000000000000        9.3785076601066897E-016
 chl          55   1.5838063438114642E-030   2.7397569064699108E-030  0.57808280000000001     
 chl2c          56  0.61626080000000005        3.7507394187257688E-002  0.61626080000000005        0.0000000000000000        6.5954281321060252E-006
 chl          56   1.6884047829866727E-030   2.7397569064699108E-030  0.61626080000000005     
 chl2c          57  0.68163462500000005        3.7727617852646313E-002  0.68163462500000005        0.0000000000000000        9.3832806498680291E-016
 chl          57   1.8675131715327777E-030   2.7397569064699108E-030  0.68163462500000005     
 chl2c          58  0.69416802499999997        3.7765358178394853E-002  0.69416802499999997        0.0000000000000000        9.3738707452186901E-016
 chl          58   1.9018516407443275E-030   2.7397569064699108E-030  0.69416802499999997     
 chl2c          59  0.53705127500000005        3.7173699120809672E-002  0.53705127500000005        0.0000000000000000        9.3909862132222778E-016
 chl          59   1.4713899398097215E-030   2.7397569064699108E-030  0.53705127500000005     
 chl2c          60  0.64452155000000000        3.7607757740906807E-002  0.64452155000000000        0.0000000000000000        9.2749835364997745E-016
 chl          60   1.7658323679811918E-030   2.7397569064699108E-030  0.64452155000000000     
 chl2c          61  0.70794139999999994        3.7805373434125003E-002  0.70794139999999994        0.0000000000000000        7.4181962298033999E-006
 chl          61   1.9395873400259775E-030   2.7397569064699108E-030  0.70794139999999994     
 chl2c          62  0.76481592499999995        3.7956103087269030E-002  0.76481592499999995        0.0000000000000000        3.4618337471037143E-006
 chl          62   2.0954097126969233E-030   2.7397569064699108E-030  0.76481592499999995     
 chl2c          63  0.72597904999999996        3.7855601011927406E-002  0.72597904999999996        0.0000000000000000        9.2795665494412045E-016
 chl          63   1.9890061161899647E-030   2.7397569064699108E-030  0.72597904999999996     
 chl2c          64  0.48435739999999999        2.5708982294816416E-002  0.48435739999999999        0.0000000000000000        4.3518215203238373E-006
 chl          64   1.3270215318498091E-030   2.7397569064699108E-030  0.48435739999999999     
 chl2c          65  0.76379975000000000        3.7953597170552002E-002  0.76379975000000000        0.0000000000000000        9.3121429485870950E-016
 chl          65   2.0926256402224911E-030   2.7397569064699108E-030  0.76379975000000000     
 chl2c          66  0.35213202499999996        3.1840477731474713E-002  0.35213202499999996        0.0000000000000000        1.5368122688299326E-011
 chl          66   9.6475614748298512E-031   2.7397569064699108E-030  0.35213202499999996     
 chl2c          67  0.75736760000000003        3.7937587124568600E-002  0.75736760000000003        0.0000000000000000        7.6245902577941344E-006
 chl          67   2.0750031128365409E-030   2.7397569064699108E-030  0.75736760000000003     
 chl2c          68  0.72590779999999999        3.7855407263856986E-002  0.72590779999999999        0.0000000000000000        9.3869668235579253E-016
 chl          68   1.9888109085103788E-030   2.7397569064699108E-030  0.72590779999999999     
 chl2c          69  0.45524217500000003        2.1732330561541505E-002  0.45524217500000003        0.0000000000000000        5.3964195078796286E-016
 chl          69   1.2472528930726339E-030   2.7397569064699108E-030  0.45524217500000003     
 chl2c          70  0.48694062500000002        3.2658010878182209E-002  0.48694062500000002        0.0000000000000000        1.9027621752727232E-010
 chl          70   1.3340989403845250E-030   2.7397569064699108E-030  0.48694062500000002     
 chl2c          71  0.23986107500000001        4.3481058864416305E-002  0.23986107500000001        0.0000000000000000        2.1563015408872315E-021
 chl          71   6.5716103682454723E-031   2.7397569064699108E-030  0.23986107500000001     
 chl2c          72  0.62790522500000001        3.7549776402781669E-002  0.62790522500000001        0.0000000000000000        5.1621561305188858E-006
 chl          72   1.7203076768022935E-030   2.7397569064699108E-030  0.62790522500000001     
 chl2c          73  0.35362212500000001        3.1852614277819484E-002  0.35362212500000001        0.0000000000000000        1.6666003404309859E-011
 chl          73   9.6883865924931604E-031   2.7397569064699108E-030  0.35362212500000001     
 chl2c          74  0.64719590000000005        3.7616827685877569E-002  0.64719590000000005        0.0000000000000000        9.3433171110298633E-016
 chl          74   1.7731594368640097E-030   2.7397569064699108E-030  0.64719590000000005     
 chl2c          75  0.71554212500000003        3.7826830779512356E-002  0.71554212500000003        0.0000000000000000        7.0966121661721216E-006
 chl          75   1.9604114788389062E-030   2.7397569064699108E-030  0.71554212500000003     
 chl2c          76  0.55513977500000000        3.7257729557919804E-002  0.55513977500000000        0.0000000000000000        9.3441853230459223E-016
 chl          76   1.5209480326124023E-030   2.7397569064699108E-030  0.55513977500000000     
 chl2c          77  0.52973029999999999        3.7138172437479272E-002  0.52973029999999999        0.0000000000000000        9.2657778404485645E-016
 chl          77   1.4513322479913777E-030   2.7397569064699108E-030  0.52973029999999999     
 chl2c          78  0.45117492500000000        4.7515248899399322E-002  0.45117492500000000        0.0000000000000000        2.5069883981096172E-020
 chl          78   1.2361096167947940E-030   2.7397569064699108E-030  0.45117492500000000     
 prod   8.7489711748106987E-012   0.0000000000000000        10.000000000000000     
 dcdom   1.1003585321697003E-014  -7.2454666203068570E-036
 chl2c           1  0.60826437499999997        3.7477407714772232E-002  0.60826437499999997        0.0000000000000000        9.3573127378285851E-016
 chl           1   2.3997546466421608E-037   3.9452493772007623E-037  0.60826437499999997     
 chl2c           2  0.48302390000000001        3.2640259920490348E-002  0.48302390000000001        0.0000000000000000        8.8564671285668403E-022
 chl           2   1.9056497406480833E-037   3.9452493772007623E-037  0.48302390000000001     
 chl2c           3  0.75128689999999998        3.7922212503796585E-002  0.75128689999999998        0.0000000000000000        7.4172173546652554E-006
 chl           3   2.9640141743240914E-037   3.9452493772007623E-037  0.75128689999999998     
 chl2c           4  0.77318742499999993        3.7976509103863923E-002  0.77318742499999993        0.0000000000000000        9.3912105885500465E-016
 chl           4   3.0504172069407108E-037   3.9452493772007623E-037  0.77318742499999993     
 chl2c           5  0.48489679999999996        2.5710500362372445E-002  0.48489679999999996        0.0000000000000000        5.3956964183503835E-016
 chl           5   1.9130387982066426E-037   3.9452493772007623E-037  0.48489679999999996     
 chl2c           6  0.29222855000000003        3.1261039902252048E-002  0.29222855000000003        0.0000000000000000        1.4117480322803187E-020
 chl           6   1.1529145048877820E-037   3.9452493772007623E-037  0.29222855000000003     
 chl2c           7  0.22770740000000000        4.3064391842467263E-002  0.22770740000000000        0.0000000000000000        8.6420053322499278E-022
 chl           7   8.9836247803400491E-038   3.9452493772007623E-037  0.22770740000000000     
 chl2c           8  0.49578364999999996        4.7969800906495587E-002  0.49578364999999996        0.0000000000000000        9.1827458357822275E-022
 chl           8   1.9559901363888208E-037   3.9452493772007623E-037  0.49578364999999996     
 chl2c           9  0.28700202499999999        2.4803669054600401E-002  0.28700202499999999        0.0000000000000000        5.4184081042678104E-016
 chl           9   1.1322945603866075E-037   3.9452493772007623E-037  0.28700202499999999     
 chl2c          10  0.39094662499999999        2.5387016219684602E-002  0.39094662499999999        0.0000000000000000        5.4184867389951898E-016
 chl          10   1.5423819287999900E-037   3.9452493772007623E-037  0.39094662499999999     
 chl2c          11  0.49737575000000001        2.1820572217820047E-002  0.49737575000000001        0.0000000000000000        4.3926820514488518E-006
 chl          11   1.9622713679222623E-037   3.9452493772007623E-037  0.49737575000000001     
 chl2c          12  0.30768942500000002        4.5290941298723353E-002  0.30768942500000002        0.0000000000000000        3.3968929694929044E-013
 chl          12   1.2139115123525107E-037   3.9452493772007623E-037  0.30768942500000002     
 chl2c          13  0.75666275000000005        3.7935816987997487E-002  0.75666275000000005        0.0000000000000000        4.8332459595630831E-006
 chl          13   2.9852232431885164E-037   3.9452493772007623E-037  0.75666275000000005     
 chl2c          14  0.39804095000000000        4.6856526101924839E-002  0.39804095000000000        0.0000000000000000        5.7173966333165787E-011
 chl          14   1.5703708100878999E-037   3.9452493772007623E-037  0.39804095000000000     
 chl2c          15  0.25607262500000000        2.0954299823745293E-002  0.25607262500000000        0.0000000000000000        5.4323458438436399E-016
 chl          15   1.0102703642994144E-037   3.9452493772007623E-037  0.25607262500000000     
 chl2c          16  0.71433214999999994        3.7823443882273475E-002  0.71433214999999994        0.0000000000000000        2.1923131905642005E-006
 chl          16   2.8182184699019813E-037   3.9452493772007623E-037  0.71433214999999994     
 chl2c          17  0.62580860000000005        3.7542254757581245E-002  0.62580860000000005        0.0000000000000000        7.6116608864972686E-006
 chl          17   2.4689709893968812E-037   3.9452493772007623E-037  0.62580860000000005     
 chl2c          18  0.47925950000000000        2.5694475239060960E-002  0.47925950000000000        0.0000000000000000        3.3135091901809133E-006
 chl          18   1.8907982438925490E-037   3.9452493772007623E-037  0.47925950000000000     
 chl2c          19  0.63367130000000005        3.7570220750293731E-002  0.63367130000000005        0.0000000000000000        9.2840804349270472E-016
 chl          19   2.4999913016749975E-037   3.9452493772007623E-037  0.63367130000000005     
 chl2c          20  0.50678202500000002        3.7020645196759419E-002  0.50678202500000002        0.0000000000000000        6.0299390656362998E-006
 chl          20   1.9993814685077912E-037   3.9452493772007623E-037  0.50678202500000002     
 chl2c          21  0.71973185000000006        3.7838475073783531E-002  0.71973185000000006        0.0000000000000000        9.3329272539305717E-016
 chl          21   2.8395216329640526E-037   3.9452493772007623E-037  0.71973185000000006     
 chl2c          22  0.64616892500000001        3.7613353106285476E-002  0.64616892500000001        0.0000000000000000        9.3808881612213338E-016
 chl          22   2.5492975489227361E-037   3.9452493772007623E-037  0.64616892500000001     
 chl2c          23  0.41564179999999995        3.2286562315070731E-002  0.41564179999999995        0.0000000000000000        1.2642804983655061E-021
 chl          23   1.6398105525886037E-037   3.9452493772007623E-037  0.41564179999999995     
 chl2c          24  0.57597492500000003        3.7348402796863071E-002  0.57597492500000003        0.0000000000000000        6.9166806690578865E-006
 chl          24   2.2723647141395059E-037   3.9452493772007623E-037  0.57597492500000003     
 chl2c          25  0.31406487500000002        4.5426679235459781E-002  0.31406487500000002        0.0000000000000000        9.6291732756043191E-022
 chl          25   1.2390642524943855E-037   3.9452493772007623E-037  0.31406487500000002     
 chl2c          26  0.49427735000000000        4.7955660680174553E-002  0.49427735000000000        0.0000000000000000        6.9898266059149577E-012
 chl          26   1.9500474072519434E-037   3.9452493772007623E-037  0.49427735000000000     
 chl2c          27  0.30964730000000001        4.5333133499525620E-002  0.30964730000000001        0.0000000000000000        8.6319686746738776E-011
 chl          27   1.2216358174768977E-037   3.9452493772007623E-037  0.30964730000000001     
 chl2c          28  0.28776342500000002        3.1209236063453518E-002  0.28776342500000002        0.0000000000000000        8.1455156223634151E-011
 chl          28   1.1352984732624084E-037   3.9452493772007623E-037  0.28776342500000002     
 chl2c          29  0.68676297499999994        3.7743217595736761E-002  0.68676297499999994        0.0000000000000000        9.3416936067240992E-016
 chl          29   2.7094511994032925E-037   3.9452493772007623E-037  0.68676297499999994     
 chl2c          30  0.38930277499999999        2.5380056985171612E-002  0.38930277499999999        0.0000000000000000        4.4053112064413645E-006
 chl          30   1.5358965306112785E-037   3.9452493772007623E-037  0.38930277499999999     
 chl2c          31  0.63559385000000002        3.7576959810037038E-002  0.63559385000000002        0.0000000000000000        9.3635922540461370E-016
 chl          31   2.5075762408651346E-037   3.9452493772007623E-037  0.63559385000000002     
 chl2c          32  0.24722667500000001        2.0893126428578448E-002  0.24722667500000001        0.0000000000000000        5.4365808198962345E-016
 chl          32   9.7537088557116533E-038   3.9452493772007623E-037  0.24722667500000001     
 chl2c          33  0.60343137499999999        3.7458922634011876E-002  0.60343137499999999        0.0000000000000000        9.2987519926133009E-016
 chl          33   2.3806872564021497E-037   3.9452493772007623E-037  0.60343137499999999     
 chl2c          34  0.38241020000000003        2.5350269098008315E-002  0.38241020000000003        0.0000000000000000        5.3925614937914656E-016
 chl          34   1.5087036033852191E-037   3.9452493772007623E-037  0.38241020000000003     
 chl2c          35  0.49574644999999995        2.5740370148566064E-002  0.49574644999999995        0.0000000000000000        4.3003706530391936E-006
 chl          35   1.9558433731119886E-037   3.9452493772007623E-037  0.49574644999999995     
 chl2c          36  0.69587337500000002        3.7770393924465726E-002  0.69587337500000002        0.0000000000000000        6.9735794908987523E-006
 chl          36   2.7453939993293428E-037   3.9452493772007623E-037  0.69587337500000002     
 chl2c          37  0.33194060000000003        2.1353674699533250E-002  0.33194060000000003        0.0000000000000000        2.4896901132979143E-006
 chl          37   1.3095884454176474E-037   3.9452493772007623E-037  0.33194060000000003     
 chl2c          38  0.38455722500000000        2.1543295686358745E-002  0.38455722500000000        0.0000000000000000        4.2037292820427517E-006
 chl          38   1.5171741524293034E-037   3.9452493772007623E-037  0.38455722500000000     
 chl2c          39  0.47091117500000002        2.5670077108751441E-002  0.47091117500000002        0.0000000000000000        3.7615677627348848E-006
 chl          39   1.8578620198856293E-037   3.9452493772007623E-037  0.47091117500000002     
 chl2c          40  0.66875547499999999        3.7687445774703773E-002  0.66875547499999999        0.0000000000000000        2.2143862174137741E-006
 chl          40   2.6384071212433501E-037   3.9452493772007623E-037  0.66875547499999999     
 chl2c          41  0.44304987499999998        2.5582381488167241E-002  0.44304987499999998        0.0000000000000000        5.3742563721902819E-016
 chl          41   1.7479422434126255E-037   3.9452493772007623E-037  0.44304987499999998     
 chl2c          42  0.76234377499999995        3.7949995630725070E-002  0.76234377499999995        0.0000000000000000        1.2232652934962078E-006
 chl          42   3.0076363035316280E-037   3.9452493772007623E-037  0.76234377499999995     
 chl2c          43  0.29539925000000000        2.1185090152268007E-002  0.29539925000000000        0.0000000000000000        5.4366016314360402E-016
 chl          43   1.1654237070880723E-037   3.9452493772007623E-037  0.29539925000000000     
 chl2c          44  0.62417262500000004        3.7536352708156646E-002  0.62417262500000004        0.0000000000000000        6.3640208048669696E-006
 chl          44   2.4625166600470152E-037   3.9452493772007623E-037  0.62417262500000004     
 chl2c          45  0.37662252499999999        4.6544927192009838E-002  0.37662252499999999        0.0000000000000000        1.1640383404858580E-021
 chl          45   1.4858697821960284E-037   3.9452493772007623E-037  0.37662252499999999     
 chl2c          46  0.51876034999999998        3.7083195475449568E-002  0.51876034999999998        0.0000000000000000        9.3633230130043893E-016
 chl          46   2.0466389477539494E-037   3.9452493772007623E-037  0.51876034999999998     
 chl2c          47  0.61962282499999999        3.7519784612651236E-002  0.61962282499999999        0.0000000000000000        7.5914069185337152E-006
 chl          47   2.4445665644306268E-037   3.9452493772007623E-037  0.61962282499999999     
 chl2c          48  0.71424949999999998        3.7823212136301673E-002  0.71424949999999998        0.0000000000000000        3.3350008471921643E-006
 chl          48   2.8178923950409558E-037   3.9452493772007623E-037  0.71424949999999998     
 chl2c          49  0.53276120000000005        3.7152990741888416E-002  0.53276120000000005        0.0000000000000000        7.5617406319092675E-006
 chl          49   2.1018757924967312E-037   3.9452493772007623E-037  0.53276120000000005     
 chl2c          50  0.38132569999999999        2.1533072915600981E-002  0.38132569999999999        0.0000000000000000        5.4081548172883147E-016
 chl          50   1.5044249804356446E-037   3.9452493772007623E-037  0.38132569999999999     
 chl2c          51  0.22275920000000002        2.0700971146093840E-002  0.22275920000000002        0.0000000000000000        4.2604319471459784E-006
 chl          51   8.7884059506574013E-038   3.9452493772007623E-037  0.22275920000000002     
 chl2c          52  0.63698869999999996        3.7581825176985564E-002  0.63698869999999996        0.0000000000000000        3.9024306680844356E-006
 chl          52   2.5130792719589233E-037   3.9452493772007623E-037  0.63698869999999996     
 chl2c          53  0.75269794999999995        3.7925801262726190E-002  0.75269794999999995        0.0000000000000000        4.5443658684276564E-007
 chl          53   2.9695811184577902E-037   3.9452493772007623E-037  0.75269794999999995     
 chl2c          54  0.51861124999999997        3.7082433371327092E-002  0.51861124999999997        0.0000000000000000        7.5216551927042338E-006
 chl          54   2.0460507110718086E-037   3.9452493772007623E-037  0.51861124999999997     
 chl2c          55  0.57808280000000001        3.7357235588660491E-002  0.57808280000000001        0.0000000000000000        9.3785076601066897E-016
 chl          55   2.2806808066704727E-037   3.9452493772007623E-037  0.57808280000000001     
 chl2c          56  0.61626080000000005        3.7507394187257688E-002  0.61626080000000005        0.0000000000000000        6.6763714665404381E-006
 chl          56   2.4313025373932436E-037   3.9452493772007623E-037  0.61626080000000005     
 chl2c          57  0.68163462500000005        3.7727617852646313E-002  0.68163462500000005        0.0000000000000000        9.3832806498680291E-016
 chl          57   2.6892185797597253E-037   3.9452493772007623E-037  0.68163462500000005     
 chl2c          58  0.69416802499999997        3.7765358178394853E-002  0.69416802499999997        0.0000000000000000        9.3738707452186901E-016
 chl          58   2.7386659683039329E-037   3.9452493772007623E-037  0.69416802499999997     
 chl2c          59  0.53705127500000005        3.7173699120809672E-002  0.53705127500000005        0.0000000000000000        9.3909862132222778E-016
 chl          59   2.1188012082186256E-037   3.9452493772007623E-037  0.53705127500000005     
 chl2c          60  0.64452155000000000        3.7607757740906807E-002  0.64452155000000000        0.0000000000000000        9.2749835364997745E-016
 chl          60   2.5427982437299700E-037   3.9452493772007623E-037  0.64452155000000000     
 chl2c          61  0.70794139999999994        3.7805373434125003E-002  0.70794139999999994        0.0000000000000000        7.3990404734523507E-006
 chl          61   2.7930053674446354E-037   3.9452493772007623E-037  0.70794139999999994     
 chl2c          62  0.76481592499999995        3.7956103087269030E-002  0.76481592499999995        0.0000000000000000        3.1147215492005636E-006
 chl          62   3.0173895517794749E-037   3.9452493772007623E-037  0.76481592499999995     
 chl2c          63  0.72597904999999996        3.7855601011927406E-002  0.72597904999999996        0.0000000000000000        9.2795665494412045E-016
 chl          63   2.8641683948733011E-037   3.9452493772007623E-037  0.72597904999999996     
 chl2c          64  0.48435739999999999        2.5708982294816416E-002  0.48435739999999999        0.0000000000000000        4.3281297938984166E-006
 chl          64   1.9109107306925806E-037   3.9452493772007623E-037  0.48435739999999999     
 chl2c          65  0.76379975000000000        3.7953597170552002E-002  0.76379975000000000        0.0000000000000000        9.3121429485870950E-016
 chl          65   3.0133804879935981E-037   3.9452493772007623E-037  0.76379975000000000     
 chl2c          66  0.35213202499999996        3.1840477731474713E-002  0.35213202499999996        0.0000000000000000        7.6169531787467372E-012
 chl          66   1.3892486523236930E-037   3.9452493772007623E-037  0.35213202499999996     
 chl2c          67  0.75736760000000003        3.7937587124568600E-002  0.75736760000000003        0.0000000000000000        7.5590301396496625E-006
 chl          67   2.9880040522120364E-037   3.9452493772007623E-037  0.75736760000000003     
 chl2c          68  0.72590779999999999        3.7855407263856986E-002  0.72590779999999999        0.0000000000000000        9.3869668235579253E-016
 chl          68   2.8638872958551753E-037   3.9452493772007623E-037  0.72590779999999999     
 chl2c          69  0.45524217500000003        2.1732330561541505E-002  0.45524217500000003        0.0000000000000000        5.3964195078796286E-016
 chl          69   1.7960439073942706E-037   3.9452493772007623E-037  0.45524217500000003     
 chl2c          70  0.48694062500000002        3.2658010878182209E-002  0.48694062500000002        0.0000000000000000        1.0061843600306421E-010
 chl          70   1.9211021975150001E-037   3.9452493772007623E-037  0.48694062500000002     
 chl2c          71  0.23986107500000001        4.3481058864416305E-002  0.23986107500000001        0.0000000000000000        1.0704679925831679E-021
 chl          71   9.4631175675845540E-038   3.9452493772007623E-037  0.23986107500000001     
 chl2c          72  0.62790522500000001        3.7549776402781669E-002  0.62790522500000001        0.0000000000000000        4.8610232287551380E-006
 chl          72   2.4772426978723548E-037   3.9452493772007623E-037  0.62790522500000001     
 chl2c          73  0.35362212500000001        3.1852614277819484E-002  0.35362212500000001        0.0000000000000000        8.4570416662469103E-012
 chl          73   1.3951274684206602E-037   3.9452493772007623E-037  0.35362212500000001     
 chl2c          74  0.64719590000000005        3.7616827685877569E-002  0.64719590000000005        0.0000000000000000        9.3433171110298633E-016
 chl          74   2.5533492214018871E-037   3.9452493772007623E-037  0.64719590000000005     
 chl2c          75  0.71554212500000003        3.7826830779512356E-002  0.71554212500000003        0.0000000000000000        7.1175782916323139E-006
 chl          75   2.8229921230171602E-037   3.9452493772007623E-037  0.71554212500000003     
 chl2c          76  0.55513977500000000        3.7257729557919804E-002  0.55513977500000000        0.0000000000000000        9.3441853230459223E-016
 chl          76   2.1901648515781212E-037   3.9452493772007623E-037  0.55513977500000000     
 chl2c          77  0.52973029999999999        3.7138172437479272E-002  0.52973029999999999        0.0000000000000000        9.2657778404485645E-016
 chl          77   2.0899181361593731E-037   3.9452493772007623E-037  0.52973029999999999     
 chl2c          78  0.45117492500000000        4.7515248899399322E-002  0.45117492500000000        0.0000000000000000        1.3537073603486379E-020
 chl          78   1.7799975918648507E-037   3.9452493772007623E-037  0.45117492500000000     
 prod   4.3433049514394368E-012   0.0000000000000000        10.000000000000000     
 dcdom   5.4299104932130950E-015  -1.0433470430822133E-042
 dcdomgraz   7.4082453067337983E-020
 dcdommort   8.1291677231206316E-012
 dcdomgraz   7.5223081669078113E-020
 dcdommort   8.2375056077372390E-012
 dcdomgraz   7.5967875676688600E-020
 dcdommort   8.3025130800212776E-012
 dcdomgraz   7.6620371675064384E-020
 dcdommort   8.3829303480079870E-012
 dcdomgraz   7.7238007460887609E-020
 dcdommort   8.4684295937893073E-012
 dcdomgraz   7.5825326517833258E-020
 dcdommort   8.3758775192912876E-012
 dcdomgraz   7.4420192720079635E-020
 dcdommort   8.2829898040634924E-012
 dcdomgraz   6.1770097966356604E-020
 dcdommort   7.4366029411855256E-012
 dcdomgraz   5.0261710247642163E-020
 dcdommort   6.5897739743350191E-012
 dcdomgraz   3.8492624363461548E-020
 dcdommort   5.2660371814392836E-012
 dcdomgraz   2.6907634953681428E-020
 dcdommort   3.7831793779265857E-012
 dcdomgraz   1.5908706116094547E-020
 dcdommort   2.3005524973580507E-012
 dcdomgraz   1.1198831914856167E-020
 dcdommort   1.6196891843129746E-012
 dcdomgraz   8.4189337559710313E-021
 dcdommort   1.2063664542228734E-012
 dcdomgraz   5.5858128279334516E-021
 dcdommort   7.9306063620336311E-013
 dcdomgraz   1.2372368177416305E-021
 dcdommort   1.7328867360274089E-013
 dcdomgraz   7.1428324811333795E-022
 dcdommort   1.3162910728268625E-013
 dcdomgraz   3.3438951545971186E-022
 dcdommort   9.0062009511125619E-014
 dcdomgraz   9.6956040891445220E-023
 dcdommort   4.8495880642601706E-014
 dcdomgraz   1.9800834757223155E-024
 dcdommort   6.9314986034332585E-015
 dcdomgraz   0.0000000000000000     
 dcdommort   6.2372259776382655E-019
 dcdomgraz   0.0000000000000000     
 dcdommort   5.6113405025109785E-023
 dcdomgraz   0.0000000000000000     
 dcdommort   1.9950428118610498E-031
 dcdomgraz   0.0000000000000000     
 dcdommort   4.1047637561090448E-036
 dcdomgraz   0.0000000000000000     
 dcdommort   5.6891350512748959E-035
 dcdomgraz   0.0000000000000000     
 dcdommort   5.9263184163086620E-030
 dcdomgraz   0.0000000000000000     
 dcdommort   6.0366260504836493E-024
 dcdomgraz   0.0000000000000000     
 dcdommort   3.7801094370531364E-018
 dcdomgraz   5.8588176165429371E-026
 dcdommort   1.7955431485787970E-017
 dcdomgraz   1.0380883464710180E-027
 dcdommort   4.9312626662829771E-018
 dcdomgraz   1.0380782734898281E-027
 dcdommort   4.9312553051541631E-018
 dcdomgraz   0.0000000000000000     
 dcdommort   1.0980041691863395E-024
 dcdomgraz   0.0000000000000000     
 dcdommort   8.5148132050058590E-032
 dcdomgraz   0.0000000000000000     
 dcdommort   1.3623696986405779E-038
 dcdomgraz   0.0000000000000000     
 dcdommort   1.9618120835414920E-045
 fe   1.3001303091785938E-003
(PID.TID 0000.0001) // =======================================================
(PID.TID 0000.0001) // Begin MONITOR dynamic field statistics
(PID.TID 0000.0001) // =======================================================
(PID.TID 0000.0001) %MON time_tsnumber                =                     1
(PID.TID 0000.0001) %MON time_secondsf                =   3.6000000000000000E+03
(PID.TID 0000.0001) %MON dynstat_eta_max              =   0.0000000000000000E+00
(PID.TID 0000.0001) %MON dynstat_eta_min              =   0.0000000000000000E+00
(PID.TID 0000.0001) %MON dynstat_eta_mean             =   0.0000000000000000E+00
(PID.TID 0000.0001) %MON dynstat_eta_sd               =   0.0000000000000000E+00
(PID.TID 0000.0001) %MON dynstat_eta_del2             =   0.0000000000000000E+00
(PID.TID 0000.0001) %MON dynstat_uvel_max             =   0.0000000000000000E+00
(PID.TID 0000.0001) %MON dynstat_uvel_min             =   0.0000000000000000E+00
(PID.TID 0000.0001) %MON dynstat_uvel_mean            =   0.0000000000000000E+00
(PID.TID 0000.0001) %MON dynstat_uvel_sd              =   0.0000000000000000E+00
(PID.TID 0000.0001) %MON dynstat_uvel_del2            =   0.0000000000000000E+00
(PID.TID 0000.0001) %MON dynstat_vvel_max             =   0.0000000000000000E+00
(PID.TID 0000.0001) %MON dynstat_vvel_min             =   0.0000000000000000E+00
(PID.TID 0000.0001) %MON dynstat_vvel_mean            =   0.0000000000000000E+00
(PID.TID 0000.0001) %MON dynstat_vvel_sd              =   0.0000000000000000E+00
(PID.TID 0000.0001) %MON dynstat_vvel_del2            =   0.0000000000000000E+00
(PID.TID 0000.0001) %MON dynstat_wvel_max             =   0.0000000000000000E+00
(PID.TID 0000.0001) %MON dynstat_wvel_min             =   0.0000000000000000E+00
(PID.TID 0000.0001) %MON dynstat_wvel_mean            =   0.0000000000000000E+00
(PID.TID 0000.0001) %MON dynstat_wvel_sd              =   0.0000000000000000E+00
(PID.TID 0000.0001) %MON dynstat_wvel_del2            =   0.0000000000000000E+00
(PID.TID 0000.0001) %MON dynstat_theta_max            =   2.6335817374515290E+01
(PID.TID 0000.0001) %MON dynstat_theta_min            =   2.6737003185747747E+00
(PID.TID 0000.0001) %MON dynstat_theta_mean           =   5.4735670012030040E+00
(PID.TID 0000.0001) %MON dynstat_theta_sd             =   5.1970860626953339E+00
(PID.TID 0000.0001) %MON dynstat_theta_del2           =   0.0000000000000000E+00
(PID.TID 0000.0001) %MON dynstat_salt_max             =   3.5000000000000000E+01
(PID.TID 0000.0001) %MON dynstat_salt_min             =   3.5000000000000000E+01
(PID.TID 0000.0001) %MON dynstat_salt_mean            =   3.5000000000000007E+01
(PID.TID 0000.0001) %MON dynstat_salt_sd              =   7.1054273576010019E-15
(PID.TID 0000.0001) %MON dynstat_salt_del2            =   0.0000000000000000E+00
(PID.TID 0000.0001) %MON dynstat_sst_max              =   2.6335817374515290E+01
(PID.TID 0000.0001) %MON dynstat_sst_min              =   2.6335817374515290E+01
(PID.TID 0000.0001) %MON dynstat_sst_mean             =   2.6335817374515290E+01
(PID.TID 0000.0001) %MON dynstat_sst_sd               =   0.0000000000000000E+00
(PID.TID 0000.0001) %MON dynstat_sst_del2             =   0.0000000000000000E+00
(PID.TID 0000.0001) %MON dynstat_sss_max              =   3.5000000000000000E+01
(PID.TID 0000.0001) %MON dynstat_sss_min              =   3.5000000000000000E+01
(PID.TID 0000.0001) %MON dynstat_sss_mean             =   3.5000000000000000E+01
(PID.TID 0000.0001) %MON dynstat_sss_sd               =   0.0000000000000000E+00
(PID.TID 0000.0001) %MON dynstat_sss_del2             =   0.0000000000000000E+00
(PID.TID 0000.0001) %MON forcing_qnet_max             =   0.0000000000000000E+00
(PID.TID 0000.0001) %MON forcing_qnet_min             =   0.0000000000000000E+00
(PID.TID 0000.0001) %MON forcing_qnet_mean            =   0.0000000000000000E+00
(PID.TID 0000.0001) %MON forcing_qnet_sd              =   0.0000000000000000E+00
(PID.TID 0000.0001) %MON forcing_qnet_del2            =   0.0000000000000000E+00
(PID.TID 0000.0001) %MON forcing_qsw_max              =   0.0000000000000000E+00
(PID.TID 0000.0001) %MON forcing_qsw_min              =   0.0000000000000000E+00
(PID.TID 0000.0001) %MON forcing_qsw_mean             =   0.0000000000000000E+00
(PID.TID 0000.0001) %MON forcing_qsw_sd               =   0.0000000000000000E+00
(PID.TID 0000.0001) %MON forcing_qsw_del2             =   0.0000000000000000E+00
(PID.TID 0000.0001) %MON forcing_empmr_max            =   0.0000000000000000E+00
(PID.TID 0000.0001) %MON forcing_empmr_min            =   0.0000000000000000E+00
(PID.TID 0000.0001) %MON forcing_empmr_mean           =   0.0000000000000000E+00
(PID.TID 0000.0001) %MON forcing_empmr_sd             =   0.0000000000000000E+00
(PID.TID 0000.0001) %MON forcing_empmr_del2           =   0.0000000000000000E+00
(PID.TID 0000.0001) %MON forcing_fu_max               =   0.0000000000000000E+00
(PID.TID 0000.0001) %MON forcing_fu_min               =   0.0000000000000000E+00
(PID.TID 0000.0001) %MON forcing_fu_mean              =   0.0000000000000000E+00
(PID.TID 0000.0001) %MON forcing_fu_sd                =   0.0000000000000000E+00
(PID.TID 0000.0001) %MON forcing_fu_del2              =   0.0000000000000000E+00
(PID.TID 0000.0001) %MON forcing_fv_max               =   0.0000000000000000E+00
(PID.TID 0000.0001) %MON forcing_fv_min               =   0.0000000000000000E+00
(PID.TID 0000.0001) %MON forcing_fv_mean              =   0.0000000000000000E+00
(PID.TID 0000.0001) %MON forcing_fv_sd                =   0.0000000000000000E+00
(PID.TID 0000.0001) %MON forcing_fv_del2              =   0.0000000000000000E+00
(PID.TID 0000.0001) %MON advcfl_uvel_max              =   0.0000000000000000E+00
(PID.TID 0000.0001) %MON advcfl_vvel_max              =   0.0000000000000000E+00
(PID.TID 0000.0001) %MON advcfl_wvel_max              =   0.0000000000000000E+00
(PID.TID 0000.0001) %MON advcfl_W_hf_max              =   0.0000000000000000E+00
(PID.TID 0000.0001) %MON pe_b_mean                    =   0.0000000000000000E+00
(PID.TID 0000.0001) %MON ke_max                       =   0.0000000000000000E+00
(PID.TID 0000.0001) %MON ke_mean                      =   0.0000000000000000E+00
(PID.TID 0000.0001) %MON ke_vol                       =   4.1199767883484609E+13
(PID.TID 0000.0001) %MON vort_r_min                   =   0.0000000000000000E+00
(PID.TID 0000.0001) %MON vort_r_max                   =   0.0000000000000000E+00
(PID.TID 0000.0001) %MON vort_a_mean                  =  -4.5067801836624727E-05
(PID.TID 0000.0001) %MON vort_a_sd                    =  -4.1359030627651384E-25
(PID.TID 0000.0001) %MON vort_p_mean                  =  -4.5067801836624727E-05
(PID.TID 0000.0001) %MON vort_p_sd                    =   0.0000000000000000E+00
(PID.TID 0000.0001) %MON surfExpan_theta_mean         =   0.0000000000000000E+00
(PID.TID 0000.0001) %MON surfExpan_salt_mean          =   0.0000000000000000E+00
(PID.TID 0000.0001) // =======================================================
(PID.TID 0000.0001) // End MONITOR dynamic field statistics
(PID.TID 0000.0001) // =======================================================
(PID.TID 0000.0001) // =======================================================
(PID.TID 0000.0001) // Begin MONITOR ptracer field statistics
(PID.TID 0000.0001) // =======================================================
(PID.TID 0000.0001) %MON trcstat_ptracer01_max        =   2.0000000000000005E+03
(PID.TID 0000.0001) %MON trcstat_ptracer01_min        =   1.9999998543279803E+03
(PID.TID 0000.0001) %MON trcstat_ptracer01_mean       =   1.9999999993534364E+03
(PID.TID 0000.0001) %MON trcstat_ptracer01_sd         =   8.6138977296988474E-06
(PID.TID 0000.0001) %MON trcstat_ptracer01_del2       =   0.0000000000000000E+00
(PID.TID 0000.0001) %MON trcstat_ptracer02_max        =   2.3480167700471538E-02
(PID.TID 0000.0001) %MON trcstat_ptracer02_min        =   1.7199487607700170E-07
(PID.TID 0000.0001) %MON trcstat_ptracer02_mean       =   5.6255831186785262E-04
(PID.TID 0000.0001) %MON trcstat_ptracer02_sd         =   3.0199189369934276E-03
(PID.TID 0000.0001) %MON trcstat_ptracer02_del2       =   0.0000000000000000E+00
(PID.TID 0000.0001) %MON trcstat_ptracer03_max        =   1.8440405082163006E-02
(PID.TID 0000.0001) %MON trcstat_ptracer03_min        =   3.8791489719393813E-06
(PID.TID 0000.0001) %MON trcstat_ptracer03_mean       =   6.4464134938972760E-04
(PID.TID 0000.0001) %MON trcstat_ptracer03_sd         =   2.0412606621516829E-03
(PID.TID 0000.0001) %MON trcstat_ptracer03_del2       =   0.0000000000000000E+00
(PID.TID 0000.0001) %MON trcstat_ptracer04_max        =   3.3903497946886560E+01
(PID.TID 0000.0001) %MON trcstat_ptracer04_min        =   4.6417536541143223E-02
(PID.TID 0000.0001) %MON trcstat_ptracer04_mean       =   2.3502392218973835E+01
(PID.TID 0000.0001) %MON trcstat_ptracer04_sd         =   7.8161955649344179E+00
(PID.TID 0000.0001) %MON trcstat_ptracer04_del2       =   0.0000000000000000E+00
(PID.TID 0000.0001) %MON trcstat_ptracer05_max        =   2.2436998099663867E+00
(PID.TID 0000.0001) %MON trcstat_ptracer05_min        =   2.1025300517414114E-01
(PID.TID 0000.0001) %MON trcstat_ptracer05_mean       =   1.5821338295158838E+00
(PID.TID 0000.0001) %MON trcstat_ptracer05_sd         =   4.6735024895258576E-01
(PID.TID 0000.0001) %MON trcstat_ptracer05_del2       =   0.0000000000000000E+00
(PID.TID 0000.0001) %MON trcstat_ptracer06_max        =   3.9387401347897352E+01
(PID.TID 0000.0001) %MON trcstat_ptracer06_min        =   1.2248048835385952E+00
(PID.TID 0000.0001) %MON trcstat_ptracer06_mean       =   2.9621889553230208E+01
(PID.TID 0000.0001) %MON trcstat_ptracer06_sd         =   1.1270586409269761E+01
(PID.TID 0000.0001) %MON trcstat_ptracer06_del2       =   0.0000000000000000E+00
(PID.TID 0000.0001) %MON trcstat_ptracer07_max        =   1.3001303091785938E-03
(PID.TID 0000.0001) %MON trcstat_ptracer07_min        =   1.2999853926150390E-03
(PID.TID 0000.0001) %MON trcstat_ptracer07_mean       =   1.2999858887172118E-03
(PID.TID 0000.0001) %MON trcstat_ptracer07_sd         =   7.7445608464356761E-09
(PID.TID 0000.0001) %MON trcstat_ptracer07_del2       =   0.0000000000000000E+00
(PID.TID 0000.0001) %MON trcstat_ptracer08_max        =   2.0040849435941054E-03
(PID.TID 0000.0001) %MON trcstat_ptracer08_min        =  -5.4057574598977945E-07
(PID.TID 0000.0001) %MON trcstat_ptracer08_mean       =   1.7682572915730829E-05
(PID.TID 0000.0001) %MON trcstat_ptracer08_sd         =   1.2802326119211739E-04
(PID.TID 0000.0001) %MON trcstat_ptracer08_del2       =   0.0000000000000000E+00
(PID.TID 0000.0001) %MON trcstat_ptracer09_max        =   8.2045707451205471E-02
(PID.TID 0000.0001) %MON trcstat_ptracer09_min        =   1.5325379376044639E-08
(PID.TID 0000.0001) %MON trcstat_ptracer09_mean       =   3.4377432056976473E-03
(PID.TID 0000.0001) %MON trcstat_ptracer09_sd         =   1.4796607703007629E-02
(PID.TID 0000.0001) %MON trcstat_ptracer09_del2       =   0.0000000000000000E+00
(PID.TID 0000.0001) %MON trcstat_ptracer10_max        =   5.1278567157003420E-03
(PID.TID 0000.0001) %MON trcstat_ptracer10_min        =   9.5783621100278997E-10
(PID.TID 0000.0001) %MON trcstat_ptracer10_mean       =   2.1485895035610296E-04
(PID.TID 0000.0001) %MON trcstat_ptracer10_sd         =   9.2478798143797683E-04
(PID.TID 0000.0001) %MON trcstat_ptracer10_del2       =   0.0000000000000000E+00
(PID.TID 0000.0001) %MON trcstat_ptracer11_max        =   5.1278567046640079E-06
(PID.TID 0000.0001) %MON trcstat_ptracer11_min        =   9.5783610368124883E-13
(PID.TID 0000.0001) %MON trcstat_ptracer11_mean       =   2.1485895066291724E-07
(PID.TID 0000.0001) %MON trcstat_ptracer11_sd         =   9.2478798109036321E-07
(PID.TID 0000.0001) %MON trcstat_ptracer11_del2       =   0.0000000000000000E+00
(PID.TID 0000.0001) %MON trcstat_ptracer12_max        =   1.0358017152577734E-04
(PID.TID 0000.0001) %MON trcstat_ptracer12_min        =   3.4670569912769644E-38
(PID.TID 0000.0001) %MON trcstat_ptracer12_mean       =   3.0884964702255313E-06
(PID.TID 0000.0001) %MON trcstat_ptracer12_sd         =   1.6192258810715291E-05
(PID.TID 0000.0001) %MON trcstat_ptracer12_del2       =   0.0000000000000000E+00
(PID.TID 0000.0001) %MON trcstat_ptracer13_max        =   4.3557312228901610E-03
(PID.TID 0000.0001) %MON trcstat_ptracer13_min        =   1.8781822848050488E-05
(PID.TID 0000.0001) %MON trcstat_ptracer13_mean       =   1.2622687184937142E-03
(PID.TID 0000.0001) %MON trcstat_ptracer13_sd         =   1.5450416761962262E-03
(PID.TID 0000.0001) %MON trcstat_ptracer13_del2       =   0.0000000000000000E+00
(PID.TID 0000.0001) %MON trcstat_ptracer14_max        =   2.7223320143063506E-04
(PID.TID 0000.0001) %MON trcstat_ptracer14_min        =   1.1738639280031555E-06
(PID.TID 0000.0001) %MON trcstat_ptracer14_mean       =   7.8891794905857135E-05
(PID.TID 0000.0001) %MON trcstat_ptracer14_sd         =   9.6565104762264139E-05
(PID.TID 0000.0001) %MON trcstat_ptracer14_del2       =   0.0000000000000000E+00
(PID.TID 0000.0001) %MON trcstat_ptracer15_max        =   1.6249560323348945E-02
(PID.TID 0000.0001) %MON trcstat_ptracer15_min        =   1.1386925448277799E-03
(PID.TID 0000.0001) %MON trcstat_ptracer15_mean       =   5.4889823684651342E-03
(PID.TID 0000.0001) %MON trcstat_ptracer15_sd         =   5.1715467239950349E-03
(PID.TID 0000.0001) %MON trcstat_ptracer15_del2       =   0.0000000000000000E+00
(PID.TID 0000.0001) %MON trcstat_ptracer16_max        =   2.7223321719345594E-07
(PID.TID 0000.0001) %MON trcstat_ptracer16_min        =   1.1738637993409111E-09
(PID.TID 0000.0001) %MON trcstat_ptracer16_mean       =   7.8891795432038208E-08
(PID.TID 0000.0001) %MON trcstat_ptracer16_sd         =   9.6565106819749876E-08
(PID.TID 0000.0001) %MON trcstat_ptracer16_del2       =   0.0000000000000000E+00
(PID.TID 0000.0001) %MON trcstat_ptracer17_max        =   0.0000000000000000E+00
(PID.TID 0000.0001) %MON trcstat_ptracer17_min        =   0.0000000000000000E+00
(PID.TID 0000.0001) %MON trcstat_ptracer17_mean       =   0.0000000000000000E+00
(PID.TID 0000.0001) %MON trcstat_ptracer17_sd         =   0.0000000000000000E+00
(PID.TID 0000.0001) %MON trcstat_ptracer17_del2       =   0.0000000000000000E+00
(PID.TID 0000.0001) %MON trcstat_ptracer18_max        =   5.1117034151483319E-03
(PID.TID 0000.0001) %MON trcstat_ptracer18_min        =   1.9547677775567143E-11
(PID.TID 0000.0001) %MON trcstat_ptracer18_mean       =   2.1463338849993412E-04
(PID.TID 0000.0001) %MON trcstat_ptracer18_sd         =   9.2391774212026922E-04
(PID.TID 0000.0001) %MON trcstat_ptracer18_del2       =   0.0000000000000000E+00
(PID.TID 0000.0001) %MON trcstat_ptracer19_max        =   8.7784040723648624E-04
(PID.TID 0000.0001) %MON trcstat_ptracer19_min        =   1.1455106270729970E-34
(PID.TID 0000.0001) %MON trcstat_ptracer19_mean       =   2.6175379415806948E-05
(PID.TID 0000.0001) %MON trcstat_ptracer19_sd         =   1.3721453424017497E-04
(PID.TID 0000.0001) %MON trcstat_ptracer19_del2       =   0.0000000000000000E+00
(PID.TID 0000.0001) %MON trcstat_ptracer20_max        =   8.7785894917749693E-04
(PID.TID 0000.0001) %MON trcstat_ptracer20_min        =   3.9452493772007623E-37
(PID.TID 0000.0001) %MON trcstat_ptracer20_mean       =   2.6193776024430742E-05
(PID.TID 0000.0001) %MON trcstat_ptracer20_sd         =   1.3734221355313485E-04
(PID.TID 0000.0001) %MON trcstat_ptracer20_del2       =   0.0000000000000000E+00
(PID.TID 0000.0001) %MON trcstat_ptracer21_max        =   8.7784040723648624E-04
(PID.TID 0000.0001) %MON trcstat_ptracer21_min        =   1.1455106270729970E-34
(PID.TID 0000.0001) %MON trcstat_ptracer21_mean       =   2.6175379415807257E-05
(PID.TID 0000.0001) %MON trcstat_ptracer21_sd         =   1.3721453424017679E-04
(PID.TID 0000.0001) %MON trcstat_ptracer21_del2       =   0.0000000000000000E+00
(PID.TID 0000.0001) %MON trcstat_ptracer22_max        =   8.7784040723648624E-04
(PID.TID 0000.0001) %MON trcstat_ptracer22_min        =   1.1455106270729970E-34
(PID.TID 0000.0001) %MON trcstat_ptracer22_mean       =   2.6204002104338481E-05
(PID.TID 0000.0001) %MON trcstat_ptracer22_sd         =   1.3738612291497307E-04
(PID.TID 0000.0001) %MON trcstat_ptracer22_del2       =   0.0000000000000000E+00
(PID.TID 0000.0001) %MON trcstat_ptracer23_max        =   8.7785894917749693E-04
(PID.TID 0000.0001) %MON trcstat_ptracer23_min        =   3.9452493772007623E-37
(PID.TID 0000.0001) %MON trcstat_ptracer23_mean       =   2.6211511119305812E-05
(PID.TID 0000.0001) %MON trcstat_ptracer23_sd         =   1.3744903493318982E-04
(PID.TID 0000.0001) %MON trcstat_ptracer23_del2       =   0.0000000000000000E+00
(PID.TID 0000.0001) %MON trcstat_ptracer24_max        =   8.7785894917749693E-04
(PID.TID 0000.0001) %MON trcstat_ptracer24_min        =   3.9452493772007623E-37
(PID.TID 0000.0001) %MON trcstat_ptracer24_mean       =   2.6175379413903720E-05
(PID.TID 0000.0001) %MON trcstat_ptracer24_sd         =   1.3723205447388421E-04
(PID.TID 0000.0001) %MON trcstat_ptracer24_del2       =   0.0000000000000000E+00
(PID.TID 0000.0001) %MON trcstat_ptracer25_max        =   8.7785894917749693E-04
(PID.TID 0000.0001) %MON trcstat_ptracer25_min        =   3.9452493772007623E-37
(PID.TID 0000.0001) %MON trcstat_ptracer25_mean       =   2.6185069204545615E-05
(PID.TID 0000.0001) %MON trcstat_ptracer25_sd         =   1.3728992411919186E-04
(PID.TID 0000.0001) %MON trcstat_ptracer25_del2       =   0.0000000000000000E+00
(PID.TID 0000.0001) %MON trcstat_ptracer26_max        =   8.7785894917749693E-04
(PID.TID 0000.0001) %MON trcstat_ptracer26_min        =   3.9452493772007623E-37
(PID.TID 0000.0001) %MON trcstat_ptracer26_mean       =   2.6175379413902964E-05
(PID.TID 0000.0001) %MON trcstat_ptracer26_sd         =   1.3723205447387961E-04
(PID.TID 0000.0001) %MON trcstat_ptracer26_del2       =   0.0000000000000000E+00
(PID.TID 0000.0001) %MON trcstat_ptracer27_max        =   8.7785894917749693E-04
(PID.TID 0000.0001) %MON trcstat_ptracer27_min        =   3.9452493772007623E-37
(PID.TID 0000.0001) %MON trcstat_ptracer27_mean       =   2.6176127298458238E-05
(PID.TID 0000.0001) %MON trcstat_ptracer27_sd         =   1.3723659194665643E-04
(PID.TID 0000.0001) %MON trcstat_ptracer27_del2       =   0.0000000000000000E+00
(PID.TID 0000.0001) %MON trcstat_ptracer28_max        =   8.7785894917749693E-04
(PID.TID 0000.0001) %MON trcstat_ptracer28_min        =   3.9452493772007623E-37
(PID.TID 0000.0001) %MON trcstat_ptracer28_mean       =   2.6214735319003149E-05
(PID.TID 0000.0001) %MON trcstat_ptracer28_sd         =   1.3746832524643874E-04
(PID.TID 0000.0001) %MON trcstat_ptracer28_del2       =   0.0000000000000000E+00
(PID.TID 0000.0001) %MON trcstat_ptracer29_max        =   8.7785894917749693E-04
(PID.TID 0000.0001) %MON trcstat_ptracer29_min        =   3.9452493772007623E-37
(PID.TID 0000.0001) %MON trcstat_ptracer29_mean       =   2.6175379413904902E-05
(PID.TID 0000.0001) %MON trcstat_ptracer29_sd         =   1.3723205447389132E-04
(PID.TID 0000.0001) %MON trcstat_ptracer29_del2       =   0.0000000000000000E+00
(PID.TID 0000.0001) %MON trcstat_ptracer30_max        =   8.7785894917749693E-04
(PID.TID 0000.0001) %MON trcstat_ptracer30_min        =   3.9452493772007623E-37
(PID.TID 0000.0001) %MON trcstat_ptracer30_mean       =   2.6175379413902947E-05
(PID.TID 0000.0001) %MON trcstat_ptracer30_sd         =   1.3723205447387953E-04
(PID.TID 0000.0001) %MON trcstat_ptracer30_del2       =   0.0000000000000000E+00
(PID.TID 0000.0001) %MON trcstat_ptracer31_max        =   8.7784040716841895E-04
(PID.TID 0000.0001) %MON trcstat_ptracer31_min        =   1.1455106270729970E-34
(PID.TID 0000.0001) %MON trcstat_ptracer31_mean       =   2.6175379413904594E-05
(PID.TID 0000.0001) %MON trcstat_ptracer31_sd         =   1.3721453422993086E-04
(PID.TID 0000.0001) %MON trcstat_ptracer31_del2       =   0.0000000000000000E+00
(PID.TID 0000.0001) %MON trcstat_ptracer32_max        =   8.7785894917749693E-04
(PID.TID 0000.0001) %MON trcstat_ptracer32_min        =   3.9452493772007623E-37
(PID.TID 0000.0001) %MON trcstat_ptracer32_mean       =   2.6175379413903161E-05
(PID.TID 0000.0001) %MON trcstat_ptracer32_sd         =   1.3723205447388083E-04
(PID.TID 0000.0001) %MON trcstat_ptracer32_del2       =   0.0000000000000000E+00
(PID.TID 0000.0001) %MON trcstat_ptracer33_max        =   8.7785894917749693E-04
(PID.TID 0000.0001) %MON trcstat_ptracer33_min        =   3.9452493772007623E-37
(PID.TID 0000.0001) %MON trcstat_ptracer33_mean       =   2.6207339865458871E-05
(PID.TID 0000.0001) %MON trcstat_ptracer33_sd         =   1.3742351569686562E-04
(PID.TID 0000.0001) %MON trcstat_ptracer33_del2       =   0.0000000000000000E+00
(PID.TID 0000.0001) %MON trcstat_ptracer34_max        =   8.7784040723648624E-04
(PID.TID 0000.0001) %MON trcstat_ptracer34_min        =   1.1455106270729970E-34
(PID.TID 0000.0001) %MON trcstat_ptracer34_mean       =   2.6175379415807430E-05
(PID.TID 0000.0001) %MON trcstat_ptracer34_sd         =   1.3721453424017782E-04
(PID.TID 0000.0001) %MON trcstat_ptracer34_del2       =   0.0000000000000000E+00
(PID.TID 0000.0001) %MON trcstat_ptracer35_max        =   8.7784040723648624E-04
(PID.TID 0000.0001) %MON trcstat_ptracer35_min        =   1.1455106270729970E-34
(PID.TID 0000.0001) %MON trcstat_ptracer35_mean       =   2.6175379415807423E-05
(PID.TID 0000.0001) %MON trcstat_ptracer35_sd         =   1.3721453424017779E-04
(PID.TID 0000.0001) %MON trcstat_ptracer35_del2       =   0.0000000000000000E+00
(PID.TID 0000.0001) %MON trcstat_ptracer36_max        =   8.7785894917749693E-04
(PID.TID 0000.0001) %MON trcstat_ptracer36_min        =   3.9452493772007623E-37
(PID.TID 0000.0001) %MON trcstat_ptracer36_mean       =   2.6175379413905068E-05
(PID.TID 0000.0001) %MON trcstat_ptracer36_sd         =   1.3723205447389237E-04
(PID.TID 0000.0001) %MON trcstat_ptracer36_del2       =   0.0000000000000000E+00
(PID.TID 0000.0001) %MON trcstat_ptracer37_max        =   8.7784040723648624E-04
(PID.TID 0000.0001) %MON trcstat_ptracer37_min        =   1.1455106270729970E-34
(PID.TID 0000.0001) %MON trcstat_ptracer37_mean       =   2.6188563139841041E-05
(PID.TID 0000.0001) %MON trcstat_ptracer37_sd         =   1.3729358377943121E-04
(PID.TID 0000.0001) %MON trcstat_ptracer37_del2       =   0.0000000000000000E+00
(PID.TID 0000.0001) %MON trcstat_ptracer38_max        =   8.7784040716841895E-04
(PID.TID 0000.0001) %MON trcstat_ptracer38_min        =   1.1455106270729970E-34
(PID.TID 0000.0001) %MON trcstat_ptracer38_mean       =   2.6175379413904950E-05
(PID.TID 0000.0001) %MON trcstat_ptracer38_sd         =   1.3721453422993300E-04
(PID.TID 0000.0001) %MON trcstat_ptracer38_del2       =   0.0000000000000000E+00
(PID.TID 0000.0001) %MON trcstat_ptracer39_max        =   8.7784040716841895E-04
(PID.TID 0000.0001) %MON trcstat_ptracer39_min        =   1.1455106270729970E-34
(PID.TID 0000.0001) %MON trcstat_ptracer39_mean       =   2.6176951506175993E-05
(PID.TID 0000.0001) %MON trcstat_ptracer39_sd         =   1.3722404199932912E-04
(PID.TID 0000.0001) %MON trcstat_ptracer39_del2       =   0.0000000000000000E+00
(PID.TID 0000.0001) %MON trcstat_ptracer40_max        =   8.7784040723648624E-04
(PID.TID 0000.0001) %MON trcstat_ptracer40_min        =   1.1455106270729970E-34
(PID.TID 0000.0001) %MON trcstat_ptracer40_mean       =   2.6213370486432871E-05
(PID.TID 0000.0001) %MON trcstat_ptracer40_sd         =   1.3744220082421101E-04
(PID.TID 0000.0001) %MON trcstat_ptracer40_del2       =   0.0000000000000000E+00
(PID.TID 0000.0001) %MON trcstat_ptracer41_max        =   8.7785894917749693E-04
(PID.TID 0000.0001) %MON trcstat_ptracer41_min        =   3.9452493772007623E-37
(PID.TID 0000.0001) %MON trcstat_ptracer41_mean       =   2.6175379413903564E-05
(PID.TID 0000.0001) %MON trcstat_ptracer41_sd         =   1.3723205447388329E-04
(PID.TID 0000.0001) %MON trcstat_ptracer41_del2       =   0.0000000000000000E+00
(PID.TID 0000.0001) %MON trcstat_ptracer42_max        =   8.7784040716841895E-04
(PID.TID 0000.0001) %MON trcstat_ptracer42_min        =   1.1455106270729970E-34
(PID.TID 0000.0001) %MON trcstat_ptracer42_mean       =   2.6175379413904225E-05
(PID.TID 0000.0001) %MON trcstat_ptracer42_sd         =   1.3721453422992864E-04
(PID.TID 0000.0001) %MON trcstat_ptracer42_del2       =   0.0000000000000000E+00
(PID.TID 0000.0001) %MON trcstat_ptracer43_max        =   8.7785894917749693E-04
(PID.TID 0000.0001) %MON trcstat_ptracer43_min        =   3.9452493772007623E-37
(PID.TID 0000.0001) %MON trcstat_ptracer43_mean       =   2.6175379413903045E-05
(PID.TID 0000.0001) %MON trcstat_ptracer43_sd         =   1.3723205447388012E-04
(PID.TID 0000.0001) %MON trcstat_ptracer43_del2       =   0.0000000000000000E+00
(PID.TID 0000.0001) %MON trcstat_ptracer44_max        =   8.7785894917749693E-04
(PID.TID 0000.0001) %MON trcstat_ptracer44_min        =   3.9452493772007623E-37
(PID.TID 0000.0001) %MON trcstat_ptracer44_mean       =   2.6175379413902876E-05
(PID.TID 0000.0001) %MON trcstat_ptracer44_sd         =   1.3723205447387915E-04
(PID.TID 0000.0001) %MON trcstat_ptracer44_del2       =   0.0000000000000000E+00
(PID.TID 0000.0001) %MON trcstat_ptracer45_max        =   8.7785894917749693E-04
(PID.TID 0000.0001) %MON trcstat_ptracer45_min        =   3.9452493772007623E-37
(PID.TID 0000.0001) %MON trcstat_ptracer45_mean       =   2.6175379413903144E-05
(PID.TID 0000.0001) %MON trcstat_ptracer45_sd         =   1.3723205447388075E-04
(PID.TID 0000.0001) %MON trcstat_ptracer45_del2       =   0.0000000000000000E+00
(PID.TID 0000.0001) %MON trcstat_ptracer46_max        =   8.7785894917749693E-04
(PID.TID 0000.0001) %MON trcstat_ptracer46_min        =   3.9452493772007623E-37
(PID.TID 0000.0001) %MON trcstat_ptracer46_mean       =   2.6175379413903130E-05
(PID.TID 0000.0001) %MON trcstat_ptracer46_sd         =   1.3723205447388066E-04
(PID.TID 0000.0001) %MON trcstat_ptracer46_del2       =   0.0000000000000000E+00
(PID.TID 0000.0001) %MON trcstat_ptracer47_max        =   8.7784040716841895E-04
(PID.TID 0000.0001) %MON trcstat_ptracer47_min        =   1.1455106270729970E-34
(PID.TID 0000.0001) %MON trcstat_ptracer47_mean       =   2.6213197473552221E-05
(PID.TID 0000.0001) %MON trcstat_ptracer47_sd         =   1.3744118673390522E-04
(PID.TID 0000.0001) %MON trcstat_ptracer47_del2       =   0.0000000000000000E+00
(PID.TID 0000.0001) %MON trcstat_ptracer48_max        =   8.7785894917749693E-04
(PID.TID 0000.0001) %MON trcstat_ptracer48_min        =   3.9452493772007623E-37
(PID.TID 0000.0001) %MON trcstat_ptracer48_mean       =   2.6175379413905451E-05
(PID.TID 0000.0001) %MON trcstat_ptracer48_sd         =   1.3723205447389465E-04
(PID.TID 0000.0001) %MON trcstat_ptracer48_del2       =   0.0000000000000000E+00
(PID.TID 0000.0001) %MON trcstat_ptracer49_max        =   8.7784040716841895E-04
(PID.TID 0000.0001) %MON trcstat_ptracer49_min        =   1.1455106270729970E-34
(PID.TID 0000.0001) %MON trcstat_ptracer49_mean       =   2.6214231563152947E-05
(PID.TID 0000.0001) %MON trcstat_ptracer49_sd         =   1.3744735634997106E-04
(PID.TID 0000.0001) %MON trcstat_ptracer49_del2       =   0.0000000000000000E+00
(PID.TID 0000.0001) %MON trcstat_ptracer50_max        =   8.7785894917749693E-04
(PID.TID 0000.0001) %MON trcstat_ptracer50_min        =   3.9452493772007623E-37
(PID.TID 0000.0001) %MON trcstat_ptracer50_mean       =   2.6203711506000916E-05
(PID.TID 0000.0001) %MON trcstat_ptracer50_sd         =   1.3740172592098223E-04
(PID.TID 0000.0001) %MON trcstat_ptracer50_del2       =   0.0000000000000000E+00
(PID.TID 0000.0001) %MON trcstat_ptracer51_max        =   8.7784040716841895E-04
(PID.TID 0000.0001) %MON trcstat_ptracer51_min        =   1.1455106270729970E-34
(PID.TID 0000.0001) %MON trcstat_ptracer51_mean       =   2.6191647939605277E-05
(PID.TID 0000.0001) %MON trcstat_ptracer51_sd         =   1.3731205062688349E-04
(PID.TID 0000.0001) %MON trcstat_ptracer51_del2       =   0.0000000000000000E+00
(PID.TID 0000.0001) %MON trcstat_ptracer52_max        =   8.7785894917749693E-04
(PID.TID 0000.0001) %MON trcstat_ptracer52_min        =   3.9452493772007623E-37
(PID.TID 0000.0001) %MON trcstat_ptracer52_mean       =   2.6208583015913464E-05
(PID.TID 0000.0001) %MON trcstat_ptracer52_sd         =   1.3743134737253322E-04
(PID.TID 0000.0001) %MON trcstat_ptracer52_del2       =   0.0000000000000000E+00
(PID.TID 0000.0001) %MON trcstat_ptracer53_max        =   8.7785894917749693E-04
(PID.TID 0000.0001) %MON trcstat_ptracer53_min        =   3.9452493772007623E-37
(PID.TID 0000.0001) %MON trcstat_ptracer53_mean       =   2.6175379413904231E-05
(PID.TID 0000.0001) %MON trcstat_ptracer53_sd         =   1.3723205447388730E-04
(PID.TID 0000.0001) %MON trcstat_ptracer53_del2       =   0.0000000000000000E+00
(PID.TID 0000.0001) %MON trcstat_ptracer54_max        =   8.7784040723648624E-04
(PID.TID 0000.0001) %MON trcstat_ptracer54_min        =   1.1455106270729970E-34
(PID.TID 0000.0001) %MON trcstat_ptracer54_mean       =   2.6175379415806383E-05
(PID.TID 0000.0001) %MON trcstat_ptracer54_sd         =   1.3721453424017153E-04
(PID.TID 0000.0001) %MON trcstat_ptracer54_del2       =   0.0000000000000000E+00
(PID.TID 0000.0001) %MON trcstat_ptracer55_max        =   8.7785894917749693E-04
(PID.TID 0000.0001) %MON trcstat_ptracer55_min        =   3.9452493772007623E-37
(PID.TID 0000.0001) %MON trcstat_ptracer55_mean       =   2.6175379413903964E-05
(PID.TID 0000.0001) %MON trcstat_ptracer55_sd         =   1.3723205447388568E-04
(PID.TID 0000.0001) %MON trcstat_ptracer55_del2       =   0.0000000000000000E+00
(PID.TID 0000.0001) %MON trcstat_ptracer56_max        =   8.7785894917749693E-04
(PID.TID 0000.0001) %MON trcstat_ptracer56_min        =   3.9452493772007623E-37
(PID.TID 0000.0001) %MON trcstat_ptracer56_mean       =   2.6175379413905546E-05
(PID.TID 0000.0001) %MON trcstat_ptracer56_sd         =   1.3723205447389519E-04
(PID.TID 0000.0001) %MON trcstat_ptracer56_del2       =   0.0000000000000000E+00
(PID.TID 0000.0001) %MON trcstat_ptracer57_max        =   8.7785894917749693E-04
(PID.TID 0000.0001) %MON trcstat_ptracer57_min        =   3.9452493772007623E-37
(PID.TID 0000.0001) %MON trcstat_ptracer57_mean       =   2.6175379413904672E-05
(PID.TID 0000.0001) %MON trcstat_ptracer57_sd         =   1.3723205447388993E-04
(PID.TID 0000.0001) %MON trcstat_ptracer57_del2       =   0.0000000000000000E+00
(PID.TID 0000.0001) %MON trcstat_ptracer58_max        =   8.7784040723648624E-04
(PID.TID 0000.0001) %MON trcstat_ptracer58_min        =   1.1455106270729970E-34
(PID.TID 0000.0001) %MON trcstat_ptracer58_mean       =   2.6175379415807436E-05
(PID.TID 0000.0001) %MON trcstat_ptracer58_sd         =   1.3721453424017787E-04
(PID.TID 0000.0001) %MON trcstat_ptracer58_del2       =   0.0000000000000000E+00
(PID.TID 0000.0001) %MON trcstat_ptracer59_max        =   8.7785894917749693E-04
(PID.TID 0000.0001) %MON trcstat_ptracer59_min        =   3.9452493772007623E-37
(PID.TID 0000.0001) %MON trcstat_ptracer59_mean       =   2.6175379413903676E-05
(PID.TID 0000.0001) %MON trcstat_ptracer59_sd         =   1.3723205447388394E-04
(PID.TID 0000.0001) %MON trcstat_ptracer59_del2       =   0.0000000000000000E+00
(PID.TID 0000.0001) %MON trcstat_ptracer60_max        =   8.7784040716841895E-04
(PID.TID 0000.0001) %MON trcstat_ptracer60_min        =   1.1455106270729970E-34
(PID.TID 0000.0001) %MON trcstat_ptracer60_mean       =   2.6175379413904797E-05
(PID.TID 0000.0001) %MON trcstat_ptracer60_sd         =   1.3721453422993208E-04
(PID.TID 0000.0001) %MON trcstat_ptracer60_del2       =   0.0000000000000000E+00
(PID.TID 0000.0001) %MON trcstat_ptracer61_max        =   8.7785894917749693E-04
(PID.TID 0000.0001) %MON trcstat_ptracer61_min        =   3.9452493772007623E-37
(PID.TID 0000.0001) %MON trcstat_ptracer61_mean       =   2.6175379413905526E-05
(PID.TID 0000.0001) %MON trcstat_ptracer61_sd         =   1.3723205447389511E-04
(PID.TID 0000.0001) %MON trcstat_ptracer61_del2       =   0.0000000000000000E+00
(PID.TID 0000.0001) %MON trcstat_ptracer62_max        =   8.7784040716841895E-04
(PID.TID 0000.0001) %MON trcstat_ptracer62_min        =   1.1455106270729970E-34
(PID.TID 0000.0001) %MON trcstat_ptracer62_mean       =   2.6175379413904255E-05
(PID.TID 0000.0001) %MON trcstat_ptracer62_sd         =   1.3721453422992883E-04
(PID.TID 0000.0001) %MON trcstat_ptracer62_del2       =   0.0000000000000000E+00
(PID.TID 0000.0001) %MON trcstat_ptracer63_max        =   8.7785894917749693E-04
(PID.TID 0000.0001) %MON trcstat_ptracer63_min        =   3.9452493772007623E-37
(PID.TID 0000.0001) %MON trcstat_ptracer63_mean       =   2.6189963477946937E-05
(PID.TID 0000.0001) %MON trcstat_ptracer63_sd         =   1.3731921941637467E-04
(PID.TID 0000.0001) %MON trcstat_ptracer63_del2       =   0.0000000000000000E+00
(PID.TID 0000.0001) %MON trcstat_ptracer64_max        =   8.7784040716841895E-04
(PID.TID 0000.0001) %MON trcstat_ptracer64_min        =   1.1455106270729970E-34
(PID.TID 0000.0001) %MON trcstat_ptracer64_mean       =   2.6212327878631427E-05
(PID.TID 0000.0001) %MON trcstat_ptracer64_sd         =   1.3743584554502201E-04
(PID.TID 0000.0001) %MON trcstat_ptracer64_del2       =   0.0000000000000000E+00
(PID.TID 0000.0001) %MON trcstat_ptracer65_max        =   8.7784040716841895E-04
(PID.TID 0000.0001) %MON trcstat_ptracer65_min        =   1.1455106270729970E-34
(PID.TID 0000.0001) %MON trcstat_ptracer65_mean       =   2.6175379413905133E-05
(PID.TID 0000.0001) %MON trcstat_ptracer65_sd         =   1.3721453422993409E-04
(PID.TID 0000.0001) %MON trcstat_ptracer65_del2       =   0.0000000000000000E+00
(PID.TID 0000.0001) %MON trcstat_ptracer66_max        =   8.7784040716841895E-04
(PID.TID 0000.0001) %MON trcstat_ptracer66_min        =   1.1455106270729970E-34
(PID.TID 0000.0001) %MON trcstat_ptracer66_mean       =   2.6175379413904977E-05
(PID.TID 0000.0001) %MON trcstat_ptracer66_sd         =   1.3721453422993319E-04
(PID.TID 0000.0001) %MON trcstat_ptracer66_del2       =   0.0000000000000000E+00
(PID.TID 0000.0001) %MON trcstat_ptracer67_max        =   8.7784040716841895E-04
(PID.TID 0000.0001) %MON trcstat_ptracer67_min        =   1.1455106270729970E-34
(PID.TID 0000.0001) %MON trcstat_ptracer67_mean       =   2.6175379413904712E-05
(PID.TID 0000.0001) %MON trcstat_ptracer67_sd         =   1.3721453422993159E-04
(PID.TID 0000.0001) %MON trcstat_ptracer67_del2       =   0.0000000000000000E+00
(PID.TID 0000.0001) %MON trcstat_ptracer68_max        =   8.7785894917749693E-04
(PID.TID 0000.0001) %MON trcstat_ptracer68_min        =   3.9452493772007623E-37
(PID.TID 0000.0001) %MON trcstat_ptracer68_mean       =   2.6192208286765012E-05
(PID.TID 0000.0001) %MON trcstat_ptracer68_sd         =   1.3733292724091943E-04
(PID.TID 0000.0001) %MON trcstat_ptracer68_del2       =   0.0000000000000000E+00
(PID.TID 0000.0001) %MON trcstat_ptracer69_max        =   8.7785894917749693E-04
(PID.TID 0000.0001) %MON trcstat_ptracer69_min        =   3.9452493772007623E-37
(PID.TID 0000.0001) %MON trcstat_ptracer69_mean       =   2.6175379413905827E-05
(PID.TID 0000.0001) %MON trcstat_ptracer69_sd         =   1.3723205447389687E-04
(PID.TID 0000.0001) %MON trcstat_ptracer69_del2       =   0.0000000000000000E+00
(PID.TID 0000.0001) %MON trcstat_ptracer70_max        =   8.7784040723648624E-04
(PID.TID 0000.0001) %MON trcstat_ptracer70_min        =   1.1455106270729970E-34
(PID.TID 0000.0001) %MON trcstat_ptracer70_mean       =   2.6175379415807348E-05
(PID.TID 0000.0001) %MON trcstat_ptracer70_sd         =   1.3721453424017733E-04
(PID.TID 0000.0001) %MON trcstat_ptracer70_del2       =   0.0000000000000000E+00
(PID.TID 0000.0001) %MON trcstat_ptracer71_max        =   8.7784040723648624E-04
(PID.TID 0000.0001) %MON trcstat_ptracer71_min        =   1.1455106270729970E-34
(PID.TID 0000.0001) %MON trcstat_ptracer71_mean       =   2.6175379415806898E-05
(PID.TID 0000.0001) %MON trcstat_ptracer71_sd         =   1.3721453424017462E-04
(PID.TID 0000.0001) %MON trcstat_ptracer71_del2       =   0.0000000000000000E+00
(PID.TID 0000.0001) %MON trcstat_ptracer72_max        =   8.7784040716841895E-04
(PID.TID 0000.0001) %MON trcstat_ptracer72_min        =   1.1455106270729970E-34
(PID.TID 0000.0001) %MON trcstat_ptracer72_mean       =   2.6175379413904248E-05
(PID.TID 0000.0001) %MON trcstat_ptracer72_sd         =   1.3721453422992880E-04
(PID.TID 0000.0001) %MON trcstat_ptracer72_del2       =   0.0000000000000000E+00
(PID.TID 0000.0001) %MON trcstat_ptracer73_max        =   8.7784040716841895E-04
(PID.TID 0000.0001) %MON trcstat_ptracer73_min        =   1.1455106270729970E-34
(PID.TID 0000.0001) %MON trcstat_ptracer73_mean       =   2.6212877790078094E-05
(PID.TID 0000.0001) %MON trcstat_ptracer73_sd         =   1.3743919339395306E-04
(PID.TID 0000.0001) %MON trcstat_ptracer73_del2       =   0.0000000000000000E+00
(PID.TID 0000.0001) %MON trcstat_ptracer74_max        =   8.7784040723648624E-04
(PID.TID 0000.0001) %MON trcstat_ptracer74_min        =   1.1455106270729970E-34
(PID.TID 0000.0001) %MON trcstat_ptracer74_mean       =   2.6175379415807358E-05
(PID.TID 0000.0001) %MON trcstat_ptracer74_sd         =   1.3721453424017738E-04
(PID.TID 0000.0001) %MON trcstat_ptracer74_del2       =   0.0000000000000000E+00
(PID.TID 0000.0001) %MON trcstat_ptracer75_max        =   8.7784040716841895E-04
(PID.TID 0000.0001) %MON trcstat_ptracer75_min        =   1.1455106270729970E-34
(PID.TID 0000.0001) %MON trcstat_ptracer75_mean       =   2.6216234087266651E-05
(PID.TID 0000.0001) %MON trcstat_ptracer75_sd         =   1.3745940835910986E-04
(PID.TID 0000.0001) %MON trcstat_ptracer75_del2       =   0.0000000000000000E+00
(PID.TID 0000.0001) %MON trcstat_ptracer76_max        =   8.7784040723648624E-04
(PID.TID 0000.0001) %MON trcstat_ptracer76_min        =   1.1455106270729970E-34
(PID.TID 0000.0001) %MON trcstat_ptracer76_mean       =   2.6185220650146928E-05
(PID.TID 0000.0001) %MON trcstat_ptracer76_sd         =   1.3727359212949104E-04
(PID.TID 0000.0001) %MON trcstat_ptracer76_del2       =   0.0000000000000000E+00
(PID.TID 0000.0001) %MON trcstat_ptracer77_max        =   8.7784040716841895E-04
(PID.TID 0000.0001) %MON trcstat_ptracer77_min        =   1.1455106270729970E-34
(PID.TID 0000.0001) %MON trcstat_ptracer77_mean       =   2.6175379413905475E-05
(PID.TID 0000.0001) %MON trcstat_ptracer77_sd         =   1.3721453422993620E-04
(PID.TID 0000.0001) %MON trcstat_ptracer77_del2       =   0.0000000000000000E+00
(PID.TID 0000.0001) %MON trcstat_ptracer78_max        =   8.7784040716841895E-04
(PID.TID 0000.0001) %MON trcstat_ptracer78_min        =   1.1455106270729970E-34
(PID.TID 0000.0001) %MON trcstat_ptracer78_mean       =   2.6178715570794885E-05
(PID.TID 0000.0001) %MON trcstat_ptracer78_sd         =   1.3723461295545299E-04
(PID.TID 0000.0001) %MON trcstat_ptracer78_del2       =   0.0000000000000000E+00
(PID.TID 0000.0001) %MON trcstat_ptracer79_max        =   8.7784040716841895E-04
(PID.TID 0000.0001) %MON trcstat_ptracer79_min        =   1.1455106270729970E-34
(PID.TID 0000.0001) %MON trcstat_ptracer79_mean       =   2.6175379413904861E-05
(PID.TID 0000.0001) %MON trcstat_ptracer79_sd         =   1.3721453422993246E-04
(PID.TID 0000.0001) %MON trcstat_ptracer79_del2       =   0.0000000000000000E+00
(PID.TID 0000.0001) %MON trcstat_ptracer80_max        =   8.7784040716841895E-04
(PID.TID 0000.0001) %MON trcstat_ptracer80_min        =   1.1455106270729970E-34
(PID.TID 0000.0001) %MON trcstat_ptracer80_mean       =   2.6175379413904167E-05
(PID.TID 0000.0001) %MON trcstat_ptracer80_sd         =   1.3721453422992831E-04
(PID.TID 0000.0001) %MON trcstat_ptracer80_del2       =   0.0000000000000000E+00
(PID.TID 0000.0001) %MON trcstat_ptracer81_max        =   8.7784040723648624E-04
(PID.TID 0000.0001) %MON trcstat_ptracer81_min        =   1.1455106270729970E-34
(PID.TID 0000.0001) %MON trcstat_ptracer81_mean       =   2.6197067000579689E-05
(PID.TID 0000.0001) %MON trcstat_ptracer81_sd         =   1.3734455048922126E-04
(PID.TID 0000.0001) %MON trcstat_ptracer81_del2       =   0.0000000000000000E+00
(PID.TID 0000.0001) %MON trcstat_ptracer82_max        =   8.7785894917749693E-04
(PID.TID 0000.0001) %MON trcstat_ptracer82_min        =   3.9452493772007623E-37
(PID.TID 0000.0001) %MON trcstat_ptracer82_mean       =   2.6175379413903601E-05
(PID.TID 0000.0001) %MON trcstat_ptracer82_sd         =   1.3723205447388351E-04
(PID.TID 0000.0001) %MON trcstat_ptracer82_del2       =   0.0000000000000000E+00
(PID.TID 0000.0001) %MON trcstat_ptracer83_max        =   8.7784040723648624E-04
(PID.TID 0000.0001) %MON trcstat_ptracer83_min        =   1.1455106270729970E-34
(PID.TID 0000.0001) %MON trcstat_ptracer83_mean       =   2.6175379415806447E-05
(PID.TID 0000.0001) %MON trcstat_ptracer83_sd         =   1.3721453424017191E-04
(PID.TID 0000.0001) %MON trcstat_ptracer83_del2       =   0.0000000000000000E+00
(PID.TID 0000.0001) %MON trcstat_ptracer84_max        =   8.7785894917749693E-04
(PID.TID 0000.0001) %MON trcstat_ptracer84_min        =   3.9452493772007623E-37
(PID.TID 0000.0001) %MON trcstat_ptracer84_mean       =   2.6175379413903032E-05
(PID.TID 0000.0001) %MON trcstat_ptracer84_sd         =   1.3723205447388004E-04
(PID.TID 0000.0001) %MON trcstat_ptracer84_del2       =   0.0000000000000000E+00
(PID.TID 0000.0001) %MON trcstat_ptracer85_max        =   8.7784040716841895E-04
(PID.TID 0000.0001) %MON trcstat_ptracer85_min        =   1.1455106270729970E-34
(PID.TID 0000.0001) %MON trcstat_ptracer85_mean       =   2.6175379413904689E-05
(PID.TID 0000.0001) %MON trcstat_ptracer85_sd         =   1.3721453422993146E-04
(PID.TID 0000.0001) %MON trcstat_ptracer85_del2       =   0.0000000000000000E+00
(PID.TID 0000.0001) %MON trcstat_ptracer86_max        =   8.7784040723648624E-04
(PID.TID 0000.0001) %MON trcstat_ptracer86_min        =   1.1455106270729970E-34
(PID.TID 0000.0001) %MON trcstat_ptracer86_mean       =   2.6180960408795898E-05
(PID.TID 0000.0001) %MON trcstat_ptracer86_sd         =   1.3724808552189604E-04
(PID.TID 0000.0001) %MON trcstat_ptracer86_del2       =   0.0000000000000000E+00
(PID.TID 0000.0001) %MON trcstat_ptracer87_max        =   8.7785894917749693E-04
(PID.TID 0000.0001) %MON trcstat_ptracer87_min        =   3.9452493772007623E-37
(PID.TID 0000.0001) %MON trcstat_ptracer87_mean       =   2.6205063244978753E-05
(PID.TID 0000.0001) %MON trcstat_ptracer87_sd         =   1.3740999894004319E-04
(PID.TID 0000.0001) %MON trcstat_ptracer87_del2       =   0.0000000000000000E+00
(PID.TID 0000.0001) %MON trcstat_ptracer88_max        =   8.7785894917749693E-04
(PID.TID 0000.0001) %MON trcstat_ptracer88_min        =   3.9452493772007623E-37
(PID.TID 0000.0001) %MON trcstat_ptracer88_mean       =   2.6175379413903554E-05
(PID.TID 0000.0001) %MON trcstat_ptracer88_sd         =   1.3723205447388324E-04
(PID.TID 0000.0001) %MON trcstat_ptracer88_del2       =   0.0000000000000000E+00
(PID.TID 0000.0001) %MON trcstat_ptracer89_max        =   8.7785894917749693E-04
(PID.TID 0000.0001) %MON trcstat_ptracer89_min        =   3.9452493772007623E-37
(PID.TID 0000.0001) %MON trcstat_ptracer89_mean       =   2.6175379413903235E-05
(PID.TID 0000.0001) %MON trcstat_ptracer89_sd         =   1.3723205447388129E-04
(PID.TID 0000.0001) %MON trcstat_ptracer89_del2       =   0.0000000000000000E+00
(PID.TID 0000.0001) %MON trcstat_ptracer90_max        =   8.7784040723648624E-04
(PID.TID 0000.0001) %MON trcstat_ptracer90_min        =   1.1455106270729970E-34
(PID.TID 0000.0001) %MON trcstat_ptracer90_mean       =   2.6175379415807372E-05
(PID.TID 0000.0001) %MON trcstat_ptracer90_sd         =   1.3721453424017746E-04
(PID.TID 0000.0001) %MON trcstat_ptracer90_del2       =   0.0000000000000000E+00
(PID.TID 0000.0001) %MON trcstat_ptracer91_max        =   8.7785894917749693E-04
(PID.TID 0000.0001) %MON trcstat_ptracer91_min        =   3.9452493772007623E-37
(PID.TID 0000.0001) %MON trcstat_ptracer91_mean       =   2.6175379413903462E-05
(PID.TID 0000.0001) %MON trcstat_ptracer91_sd         =   1.3723205447388264E-04
(PID.TID 0000.0001) %MON trcstat_ptracer91_del2       =   0.0000000000000000E+00
(PID.TID 0000.0001) %MON trcstat_ptracer92_max        =   8.7784040716841895E-04
(PID.TID 0000.0001) %MON trcstat_ptracer92_min        =   1.1455106270729970E-34
(PID.TID 0000.0001) %MON trcstat_ptracer92_mean       =   2.6178704155689472E-05
(PID.TID 0000.0001) %MON trcstat_ptracer92_sd         =   1.3723455180816637E-04
(PID.TID 0000.0001) %MON trcstat_ptracer92_del2       =   0.0000000000000000E+00
(PID.TID 0000.0001) %MON trcstat_ptracer93_max        =   8.7784040723648624E-04
(PID.TID 0000.0001) %MON trcstat_ptracer93_min        =   1.1455106270729970E-34
(PID.TID 0000.0001) %MON trcstat_ptracer93_mean       =   2.6175379415806457E-05
(PID.TID 0000.0001) %MON trcstat_ptracer93_sd         =   1.3721453424017199E-04
(PID.TID 0000.0001) %MON trcstat_ptracer93_del2       =   0.0000000000000000E+00
(PID.TID 0000.0001) %MON trcstat_ptracer94_max        =   8.7784040723648624E-04
(PID.TID 0000.0001) %MON trcstat_ptracer94_min        =   1.1455106270729970E-34
(PID.TID 0000.0001) %MON trcstat_ptracer94_mean       =   2.6211104039039899E-05
(PID.TID 0000.0001) %MON trcstat_ptracer94_sd         =   1.3742853315710539E-04
(PID.TID 0000.0001) %MON trcstat_ptracer94_del2       =   0.0000000000000000E+00
(PID.TID 0000.0001) %MON trcstat_ptracer95_max        =   8.7784040716841895E-04
(PID.TID 0000.0001) %MON trcstat_ptracer95_min        =   1.1455106270729970E-34
(PID.TID 0000.0001) %MON trcstat_ptracer95_mean       =   2.6175379413904086E-05
(PID.TID 0000.0001) %MON trcstat_ptracer95_sd         =   1.3721453422992785E-04
(PID.TID 0000.0001) %MON trcstat_ptracer95_del2       =   0.0000000000000000E+00
(PID.TID 0000.0001) %MON trcstat_ptracer96_max        =   8.7785894917749693E-04
(PID.TID 0000.0001) %MON trcstat_ptracer96_min        =   3.9452493772007623E-37
(PID.TID 0000.0001) %MON trcstat_ptracer96_mean       =   2.6193923230501561E-05
(PID.TID 0000.0001) %MON trcstat_ptracer96_sd         =   1.3734293281325957E-04
(PID.TID 0000.0001) %MON trcstat_ptracer96_del2       =   0.0000000000000000E+00
(PID.TID 0000.0001) %MON trcstat_ptracer97_max        =   1.2415930925341799E-07
(PID.TID 0000.0001) %MON trcstat_ptracer97_min        =   2.7697933074757085E-35
(PID.TID 0000.0001) %MON trcstat_ptracer97_mean       =   1.6419666009736247E-08
(PID.TID 0000.0001) %MON trcstat_ptracer97_sd         =   3.0032591276925901E-08
(PID.TID 0000.0001) %MON trcstat_ptracer97_del2       =   0.0000000000000000E+00
(PID.TID 0000.0001) %MON trcstat_ptracer98_max        =   1.2416000433253270E-07
(PID.TID 0000.0001) %MON trcstat_ptracer98_min        =   2.7697933074757085E-35
(PID.TID 0000.0001) %MON trcstat_ptracer98_mean       =   1.6419685756800952E-08
(PID.TID 0000.0001) %MON trcstat_ptracer98_sd         =   3.0032657492574429E-08
(PID.TID 0000.0001) %MON trcstat_ptracer98_del2       =   0.0000000000000000E+00
(PID.TID 0000.0001) // =======================================================
(PID.TID 0000.0001) // End MONITOR ptracers field statistics
(PID.TID 0000.0001) // =======================================================
 Computing Diagnostic #    140  TRAC01       Counter:       1   Parms: SMR     MR      
 Computing Diagnostic #    152  TRAC02       Counter:       1   Parms: SMR     MR      
 Computing Diagnostic #    164  TRAC03       Counter:       1   Parms: SMR     MR      
 Computing Diagnostic #    176  TRAC04       Counter:       1   Parms: SMR     MR      
 Computing Diagnostic #    188  TRAC05       Counter:       1   Parms: SMR     MR      
 Computing Diagnostic #    200  TRAC06       Counter:       1   Parms: SMR     MR      
 Computing Diagnostic #    212  TRAC07       Counter:       1   Parms: SMR     MR      
 Computing Diagnostic #    224  TRAC08       Counter:       1   Parms: SMR     MR      
 Computing Diagnostic #    236  TRAC09       Counter:       1   Parms: SMR     MR      
 Computing Diagnostic #    248  TRAC10       Counter:       1   Parms: SMR     MR      
 Computing Diagnostic #    260  TRAC11       Counter:       1   Parms: SMR     MR      
 Computing Diagnostic #    272  TRAC12       Counter:       1   Parms: SMR     MR      
 Computing Diagnostic #    284  TRAC13       Counter:       1   Parms: SMR     MR      
 Computing Diagnostic #    296  TRAC14       Counter:       1   Parms: SMR     MR      
 Computing Diagnostic #    308  TRAC15       Counter:       1   Parms: SMR     MR      
 Computing Diagnostic #    320  TRAC16       Counter:       1   Parms: SMR     MR      
 Computing Diagnostic #    332  TRAC17       Counter:       1   Parms: SMR     MR      
 Computing Diagnostic #    344  TRAC18       Counter:       1   Parms: SMR     MR      
 Computing Diagnostic #    356  TRAC19       Counter:       1   Parms: SMR     MR      
 Computing Diagnostic #    368  TRAC20       Counter:       1   Parms: SMR     MR      
 Computing Diagnostic #    380  TRAC21       Counter:       1   Parms: SMR     MR      
 Computing Diagnostic #    392  TRAC22       Counter:       1   Parms: SMR     MR      
 Computing Diagnostic #    404  TRAC23       Counter:       1   Parms: SMR     MR      
 Computing Diagnostic #    416  TRAC24       Counter:       1   Parms: SMR     MR      
 Computing Diagnostic #    428  TRAC25       Counter:       1   Parms: SMR     MR      
 Computing Diagnostic #    440  TRAC26       Counter:       1   Parms: SMR     MR      
 Computing Diagnostic #    452  TRAC27       Counter:       1   Parms: SMR     MR      
 Computing Diagnostic #    464  TRAC28       Counter:       1   Parms: SMR     MR      
 Computing Diagnostic #    476  TRAC29       Counter:       1   Parms: SMR     MR      
 Computing Diagnostic #    488  TRAC30       Counter:       1   Parms: SMR     MR      
 Computing Diagnostic #    500  TRAC31       Counter:       1   Parms: SMR     MR      
 Computing Diagnostic #    512  TRAC32       Counter:       1   Parms: SMR     MR      
 Computing Diagnostic #    524  TRAC33       Counter:       1   Parms: SMR     MR      
 Computing Diagnostic #    536  TRAC34       Counter:       1   Parms: SMR     MR      
 Computing Diagnostic #    548  TRAC35       Counter:       1   Parms: SMR     MR      
 Computing Diagnostic #    560  TRAC36       Counter:       1   Parms: SMR     MR      
 Computing Diagnostic #    572  TRAC37       Counter:       1   Parms: SMR     MR      
 Computing Diagnostic #    584  TRAC38       Counter:       1   Parms: SMR     MR      
 Computing Diagnostic #    596  TRAC39       Counter:       1   Parms: SMR     MR      
 Computing Diagnostic #    608  TRAC40       Counter:       1   Parms: SMR     MR      
 Computing Diagnostic #    620  TRAC41       Counter:       1   Parms: SMR     MR      
 Computing Diagnostic #    632  TRAC42       Counter:       1   Parms: SMR     MR      
 Computing Diagnostic #    644  TRAC43       Counter:       1   Parms: SMR     MR      
 Computing Diagnostic #    656  TRAC44       Counter:       1   Parms: SMR     MR      
 Computing Diagnostic #    668  TRAC45       Counter:       1   Parms: SMR     MR      
 Computing Diagnostic #    680  TRAC46       Counter:       1   Parms: SMR     MR      
 Computing Diagnostic #    692  TRAC47       Counter:       1   Parms: SMR     MR      
 Computing Diagnostic #    704  TRAC48       Counter:       1   Parms: SMR     MR      
 Computing Diagnostic #    716  TRAC49       Counter:       1   Parms: SMR     MR      
 Computing Diagnostic #    728  TRAC50       Counter:       1   Parms: SMR     MR      
 Computing Diagnostic #    740  TRAC51       Counter:       1   Parms: SMR     MR      
 Computing Diagnostic #    752  TRAC52       Counter:       1   Parms: SMR     MR      
 Computing Diagnostic #    764  TRAC53       Counter:       1   Parms: SMR     MR      
 Computing Diagnostic #    776  TRAC54       Counter:       1   Parms: SMR     MR      
 Computing Diagnostic #    788  TRAC55       Counter:       1   Parms: SMR     MR      
 Computing Diagnostic #    800  TRAC56       Counter:       1   Parms: SMR     MR      
 Computing Diagnostic #    812  TRAC57       Counter:       1   Parms: SMR     MR      
 Computing Diagnostic #    824  TRAC58       Counter:       1   Parms: SMR     MR      
 Computing Diagnostic #    836  TRAC59       Counter:       1   Parms: SMR     MR      
 Computing Diagnostic #    848  TRAC60       Counter:       1   Parms: SMR     MR      
 Computing Diagnostic #    860  TRAC61       Counter:       1   Parms: SMR     MR      
 Computing Diagnostic #    872  TRAC62       Counter:       1   Parms: SMR     MR      
 Computing Diagnostic #    884  TRAC63       Counter:       1   Parms: SMR     MR      
 Computing Diagnostic #    896  TRAC64       Counter:       1   Parms: SMR     MR      
 Computing Diagnostic #    908  TRAC65       Counter:       1   Parms: SMR     MR      
 Computing Diagnostic #    920  TRAC66       Counter:       1   Parms: SMR     MR      
 Computing Diagnostic #    932  TRAC67       Counter:       1   Parms: SMR     MR      
 Computing Diagnostic #    944  TRAC68       Counter:       1   Parms: SMR     MR      
 Computing Diagnostic #    956  TRAC69       Counter:       1   Parms: SMR     MR      
 Computing Diagnostic #    968  TRAC70       Counter:       1   Parms: SMR     MR      
 Computing Diagnostic #    980  TRAC71       Counter:       1   Parms: SMR     MR      
 Computing Diagnostic #    992  TRAC72       Counter:       1   Parms: SMR     MR      
 Computing Diagnostic #   1004  TRAC73       Counter:       1   Parms: SMR     MR      
 Computing Diagnostic #   1016  TRAC74       Counter:       1   Parms: SMR     MR      
 Computing Diagnostic #   1028  TRAC75       Counter:       1   Parms: SMR     MR      
 Computing Diagnostic #   1040  TRAC76       Counter:       1   Parms: SMR     MR      
 Computing Diagnostic #   1052  TRAC77       Counter:       1   Parms: SMR     MR      
 Computing Diagnostic #   1064  TRAC78       Counter:       1   Parms: SMR     MR      
 Computing Diagnostic #   1076  TRAC79       Counter:       1   Parms: SMR     MR      
 Computing Diagnostic #   1088  TRAC80       Counter:       1   Parms: SMR     MR      
 Computing Diagnostic #   1100  TRAC81       Counter:       1   Parms: SMR     MR      
 Computing Diagnostic #   1112  TRAC82       Counter:       1   Parms: SMR     MR      
 Computing Diagnostic #   1124  TRAC83       Counter:       1   Parms: SMR     MR      
 Computing Diagnostic #   1136  TRAC84       Counter:       1   Parms: SMR     MR      
 Computing Diagnostic #   1148  TRAC85       Counter:       1   Parms: SMR     MR      
 Computing Diagnostic #   1160  TRAC86       Counter:       1   Parms: SMR     MR      
 Computing Diagnostic #   1172  TRAC87       Counter:       1   Parms: SMR     MR      
 Computing Diagnostic #   1184  TRAC88       Counter:       1   Parms: SMR     MR      
 Computing Diagnostic #   1196  TRAC89       Counter:       1   Parms: SMR     MR      
 Computing Diagnostic #   1208  TRAC90       Counter:       1   Parms: SMR     MR      
 Computing Diagnostic #   1220  TRAC91       Counter:       1   Parms: SMR     MR      
 Computing Diagnostic #   1232  TRAC92       Counter:       1   Parms: SMR     MR      
 Computing Diagnostic #   1244  TRAC93       Counter:       1   Parms: SMR     MR      
 Computing Diagnostic #   1256  TRAC94       Counter:       1   Parms: SMR     MR      
 Computing Diagnostic #   1268  TRAC95       Counter:       1   Parms: SMR     MR      
 Computing Diagnostic #   1280  TRAC96       Counter:       1   Parms: SMR     MR      
 Computing Diagnostic #   1292  TRAC97       Counter:       1   Parms: SMR     MR      
 Computing Diagnostic #   1304  TRAC98       Counter:       1   Parms: SMR     MR      
(PID.TID 0000.0001) // =======================================================
(PID.TID 0000.0001) // Begin MONITOR EXF statistics
(PID.TID 0000.0001) // =======================================================
(PID.TID 0000.0001) %MON exf_tsnumber                 =                     1
(PID.TID 0000.0001) %MON exf_time_sec                 =   3.6000000000000000E+03
(PID.TID 0000.0001) %MON exf_ustress_max              =   0.0000000000000000E+00
(PID.TID 0000.0001) %MON exf_ustress_min              =   0.0000000000000000E+00
(PID.TID 0000.0001) %MON exf_ustress_mean             =   0.0000000000000000E+00
(PID.TID 0000.0001) %MON exf_ustress_sd               =   0.0000000000000000E+00
(PID.TID 0000.0001) %MON exf_ustress_del2             =   0.0000000000000000E+00
(PID.TID 0000.0001) %MON exf_vstress_max              =   0.0000000000000000E+00
(PID.TID 0000.0001) %MON exf_vstress_min              =   0.0000000000000000E+00
(PID.TID 0000.0001) %MON exf_vstress_mean             =   0.0000000000000000E+00
(PID.TID 0000.0001) %MON exf_vstress_sd               =   0.0000000000000000E+00
(PID.TID 0000.0001) %MON exf_vstress_del2             =   0.0000000000000000E+00
(PID.TID 0000.0001) %MON exf_hflux_max                =   0.0000000000000000E+00
(PID.TID 0000.0001) %MON exf_hflux_min                =   0.0000000000000000E+00
(PID.TID 0000.0001) %MON exf_hflux_mean               =   0.0000000000000000E+00
(PID.TID 0000.0001) %MON exf_hflux_sd                 =   0.0000000000000000E+00
(PID.TID 0000.0001) %MON exf_hflux_del2               =   0.0000000000000000E+00
(PID.TID 0000.0001) %MON exf_sflux_max                =   0.0000000000000000E+00
(PID.TID 0000.0001) %MON exf_sflux_min                =   0.0000000000000000E+00
(PID.TID 0000.0001) %MON exf_sflux_mean               =   0.0000000000000000E+00
(PID.TID 0000.0001) %MON exf_sflux_sd                 =   0.0000000000000000E+00
(PID.TID 0000.0001) %MON exf_sflux_del2               =   0.0000000000000000E+00
(PID.TID 0000.0001) %MON exf_uwind_max                =   0.0000000000000000E+00
(PID.TID 0000.0001) %MON exf_uwind_min                =   0.0000000000000000E+00
(PID.TID 0000.0001) %MON exf_uwind_mean               =   0.0000000000000000E+00
(PID.TID 0000.0001) %MON exf_uwind_sd                 =   0.0000000000000000E+00
(PID.TID 0000.0001) %MON exf_uwind_del2               =   0.0000000000000000E+00
(PID.TID 0000.0001) %MON exf_vwind_max                =   0.0000000000000000E+00
(PID.TID 0000.0001) %MON exf_vwind_min                =   0.0000000000000000E+00
(PID.TID 0000.0001) %MON exf_vwind_mean               =   0.0000000000000000E+00
(PID.TID 0000.0001) %MON exf_vwind_sd                 =   0.0000000000000000E+00
(PID.TID 0000.0001) %MON exf_vwind_del2               =   0.0000000000000000E+00
(PID.TID 0000.0001) %MON exf_wspeed_max               =   0.0000000000000000E+00
(PID.TID 0000.0001) %MON exf_wspeed_min               =   0.0000000000000000E+00
(PID.TID 0000.0001) %MON exf_wspeed_mean              =   0.0000000000000000E+00
(PID.TID 0000.0001) %MON exf_wspeed_sd                =   0.0000000000000000E+00
(PID.TID 0000.0001) %MON exf_wspeed_del2              =   0.0000000000000000E+00
(PID.TID 0000.0001) %MON exf_evap_max                 =   0.0000000000000000E+00
(PID.TID 0000.0001) %MON exf_evap_min                 =   0.0000000000000000E+00
(PID.TID 0000.0001) %MON exf_evap_mean                =   0.0000000000000000E+00
(PID.TID 0000.0001) %MON exf_evap_sd                  =   0.0000000000000000E+00
(PID.TID 0000.0001) %MON exf_evap_del2                =   0.0000000000000000E+00
(PID.TID 0000.0001) // =======================================================
(PID.TID 0000.0001) // End MONITOR EXF statistics
(PID.TID 0000.0001) // =======================================================
 Local pointing vectors
 no(2) =   0.27363063147685535      -0.12470066308196398       0.95371695074822704     
 ea(2) =   0.41469324265623930       0.90996127087654310        0.0000000000000000     
 up(2) =   0.86784548855935806      -0.39549997488200311      -0.30070579950427312     
 CDOM           1           1   5.0979599331745307E-003   100.00000000000000        2.0137527074704766     
 CDOM           1           2   5.0979599331745307E-003   100.00000000000000        1.4190675485932573     
 CDOM           1           3   5.0979599331745307E-003   100.00000000000000        1.0000000000000000     
 CDOM           1           4   5.0979599331745307E-003   100.00000000000000       0.70468808971871344     
 CDOM           1           5   5.0979599331745307E-003   100.00000000000000       0.49658530379140947     
 CDOM           1           6   5.0979599331745307E-003   100.00000000000000       0.34993774911115533     
 CDOM           1           7   5.0979599331745307E-003   100.00000000000000       0.24659696394160643     
 CDOM           1           8   5.0979599331745307E-003   100.00000000000000       0.17377394345044514     
 CDOM           1           9   5.0979599331745307E-003   100.00000000000000       0.12245642825298191     
 CDOM           1          10   5.0979599331745307E-003   100.00000000000000        8.6293586499370495E-002
 CDOM           1          11   5.0979599331745307E-003   100.00000000000000        6.0810062625217952E-002
 CDOM           1          12   5.0979599331745307E-003   100.00000000000000        4.2852126867040187E-002
 CDOM           1          13   5.0979599331745307E-003   100.00000000000000        3.0197383422318501E-002
 ac           1   3.1713984512132374E-005   3.0400000000000000E-002
 ac           2   7.1454933647127638E-005   3.8500000000000000E-002
 ac           3   3.2090385470741914E-005   3.0400000000000000E-002
 ac           4   5.4753836553689475E-005   3.0400000000000000E-002
 ac           5   5.0346838356281202E-005   2.9200000000000000E-002
 ac           6   2.6453594198362740E-005   3.8500000000000000E-002
 ac           7   7.3680748083564847E-005   2.4500000000000001E-002
 ac           8   4.0592816199478711E-005   2.4500000000000001E-002
 ac           9   2.0989263244362444E-005   2.9200000000000000E-002
 ac          10   5.7561687918426020E-005   2.9200000000000000E-002
 ac          11   1.8464918775293068E-005   3.0400000000000000E-002
 ac          12   3.8325922161405244E-005   2.4500000000000001E-002
 ac          13   3.2101897803839400E-005   3.0400000000000000E-002
 ac          14   3.9650745174219742E-005   2.4500000000000001E-002
 ac          15   7.1211137627313808E-005   3.0400000000000000E-002
 ac          16   3.2006805876413837E-005   3.0400000000000000E-002
 ac          17   3.1768859121575867E-005   3.0400000000000000E-002
 ac          18   2.1743077749151642E-005   2.9200000000000000E-002
 ac          19   3.1792524393904740E-005   3.0400000000000000E-002
 ac          20   3.1327464731142532E-005   3.0400000000000000E-002
 ac          21   3.2019525512157505E-005   3.0400000000000000E-002
 ac          22   8.0281988786127235E-005   3.0400000000000000E-002
 ac          23   2.7321407739910247E-005   3.8500000000000000E-002
 ac          24   3.1604818478032654E-005   3.0400000000000000E-002
 ac          25   3.8440785784207821E-005   2.4500000000000001E-002
 ac          26   4.0580850512792045E-005   2.4500000000000001E-002
 ac          27   3.8361625879574859E-005   2.4500000000000001E-002
 ac          28   2.6409756957702202E-005   3.8500000000000000E-002
 ac          29   7.9258776495803182E-005   3.0400000000000000E-002
 ac          30   2.1477011971335101E-005   2.9200000000000000E-002
 ac          31   8.2817422423510061E-005   3.0400000000000000E-002
 ac          32   6.3189465577811690E-005   3.0400000000000000E-002
 ac          33   3.1698342139815672E-005   3.0400000000000000E-002
 ac          34   4.7501293781285904E-005   2.9200000000000000E-002
 ac          35   2.1781914758912509E-005   2.9200000000000000E-002
 ac          36   3.1961914149827817E-005   3.0400000000000000E-002
 ac          37   1.8069822594244663E-005   3.0400000000000000E-002
 ac          38   1.8230282919705983E-005   3.0400000000000000E-002
 ac          39   2.1722431659308663E-005   2.9200000000000000E-002
 ac          40   3.1891722092872296E-005   3.0400000000000000E-002
 ac          41   2.1648222216271520E-005   2.9200000000000000E-002
 ac          42   3.2113895999106475E-005   3.0400000000000000E-002
 ac          43   1.7927163641906093E-005   3.0400000000000000E-002
 ac          44   3.1763864712531729E-005   3.0400000000000000E-002
 ac          45   1.1206477822584500E-004   2.4500000000000001E-002
 ac          46   8.0370744342505334E-005   3.0400000000000000E-002
 ac          47   3.1749844523935630E-005   3.0400000000000000E-002
 ac          48   3.2006609769249320E-005   3.0400000000000000E-002
 ac          49   3.1439457657665469E-005   3.0400000000000000E-002
 ac          50   3.3081499749956143E-005   3.0400000000000000E-002
 ac          51   1.7517494361130715E-005   3.0400000000000000E-002
 ac          52   3.1802344246205568E-005   3.0400000000000000E-002
 ac          53   3.2093422336204365E-005   3.0400000000000000E-002
 ac          54   3.1379750877137085E-005   3.0400000000000000E-002
 ac          55   8.0465972055692255E-005   3.0400000000000000E-002
 ac          56   3.1739359546905726E-005   3.0400000000000000E-002
 ac          57   8.6899129514717929E-005   3.0400000000000000E-002
 ac          58   3.1957652820599444E-005   3.0400000000000000E-002
 ac          59   3.1456981420604952E-005   3.0400000000000000E-002
 ac          60   3.1824288798422662E-005   3.0400000000000000E-002
 ac          61   3.1991514372874703E-005   3.0400000000000000E-002
 ac          62   3.2119064226955048E-005   3.0400000000000000E-002
 ac          63   3.9560279045562096E-005   3.0400000000000000E-002
 ac          64   2.1755353852799114E-005   2.9200000000000000E-002
 ac          65   3.2116943679969585E-005   3.0400000000000000E-002
 ac          66   2.6943923798573268E-005   3.8500000000000000E-002
 ac          67   3.2103395721844508E-005   3.0400000000000000E-002
 ac          68   3.2033853803426549E-005   3.0400000000000000E-002
 ac          69   6.3856958756816824E-005   3.0400000000000000E-002
 ac          70   2.7635733481627112E-005   3.8500000000000000E-002
 ac          71   3.6794370568316545E-005   2.4500000000000001E-002
 ac          72   3.1775224058585589E-005   3.0400000000000000E-002
 ac          73   2.6954193939073331E-005   3.8500000000000000E-002
 ac          74   3.1831963931572685E-005   3.0400000000000000E-002
 ac          75   3.2009671923270534E-005   3.0400000000000000E-002
 ac          76   7.6663611744604552E-005   3.0400000000000000E-002
 ac          77   3.1426918170406791E-005   3.0400000000000000E-002
 ac          78   1.4164505190785443E-004   2.4500000000000001E-002
 abs           1           1   1.0330007731442410        7.9806506201985199E-003   3.8013876712359620E-003   6.3000000000000000E-003   1.0266030618006221        9.4444523203000095E-005   3.2668204158737291E-006
 abs           1           2  0.72866177892606365        6.1579711666276231E-003   2.9012980983531582E-003   5.1000000000000004E-003  0.72343495051966278        1.2419146312405460E-004   2.6369432768653953E-006
 abs           1           3  0.51823205262488536        4.8488827288538164E-003   2.2512588270750329E-003   8.3000000000000001E-003  0.50979599331745307        1.3396683422478391E-004   2.0924732075531076E-006
 abs           1           4  0.37125678040277649        3.9526435067532778E-003   1.8012771916460571E-003   1.1900000000000001E-002  0.35924716467713003        1.0790758425252423E-004   1.7081413939209043E-006
 abs           1           5  0.27473687802984020        3.2581042354115613E-003   1.4512892996879100E-003   2.1499999999999998E-002  0.25315719821319077        7.8302627650563749E-005   1.3771889988487289E-006
 abs           1           6  0.21914473261003609        2.6590552040696050E-003   1.1512674857431734E-003   4.0700000000000000E-002  0.17839686240739511        4.6759910734920751E-005   1.1102919060485878E-006
 abs           1           7  0.18074592937646219        2.2668524256357235E-003   9.5126889684608710E-004   5.5000000000000000E-002  0.12571414418167942        3.0880947432361971E-005   9.0424735040687861E-007
 abs           1           8  0.17350918586578581        1.9642719008719682E-003   8.0124225920180853E-004   8.4900000000000003E-002   8.8589260114010596E-002   1.9186980622346365E-005   7.3877115287079104E-007
 abs           1           9  0.26194604377910435        1.7587000591140966E-003   7.0121472799286523E-004  0.19950000000000001        6.2427796479336335E-002   1.7652653045277400E-005   5.9464672275871469E-007
 abs           1          10  0.32901212390996176        1.5507355391454413E-003   6.0118102482907066E-004  0.28499999999999998        4.3992124646372137E-002   1.9519916410994101E-005   4.7934717866905380E-007
 abs           1          11  0.38222179077809382        1.2420544407237685E-003   4.5114041834672856E-004  0.35120000000000001        3.1000726279719514E-002   2.0675896207208571E-005   3.8860216711700564E-007
 abs           1          12  0.47780592067874167        1.0379807293701660E-003   3.5113047400880541E-004  0.45590000000000003        2.1845842581948272E-002   5.9759955458754509E-005   3.1814133461776838E-007
 abs           1          13  0.65870273303446170        1.0253401859969824E-003   3.5108833670833395E-004  0.64329999999999998        1.5394505077368850E-002   7.9706682954289041E-006   2.5728879745933615E-007
 CDOM           2           1   5.1064899023918796E-003   100.00000000000000        2.0137527074704766     
 CDOM           2           2   5.1064899023918796E-003   100.00000000000000        1.4190675485932573     
 CDOM           2           3   5.1064899023918796E-003   100.00000000000000        1.0000000000000000     
 CDOM           2           4   5.1064899023918796E-003   100.00000000000000       0.70468808971871344     
 CDOM           2           5   5.1064899023918796E-003   100.00000000000000       0.49658530379140947     
 CDOM           2           6   5.1064899023918796E-003   100.00000000000000       0.34993774911115533     
 CDOM           2           7   5.1064899023918796E-003   100.00000000000000       0.24659696394160643     
 CDOM           2           8   5.1064899023918796E-003   100.00000000000000       0.17377394345044514     
 CDOM           2           9   5.1064899023918796E-003   100.00000000000000       0.12245642825298191     
 CDOM           2          10   5.1064899023918796E-003   100.00000000000000        8.6293586499370495E-002
 CDOM           2          11   5.1064899023918796E-003   100.00000000000000        6.0810062625217952E-002
 CDOM           2          12   5.1064899023918796E-003   100.00000000000000        4.2852126867040187E-002
 CDOM           2          13   5.1064899023918796E-003   100.00000000000000        3.0197383422318501E-002
 abs           2           1   1.0349021197949790        8.6483910883459487E-003   3.8035231840943687E-003   6.3000000000000000E-003   1.0283207866612298        2.7728466388385738E-004   4.0484698652468666E-006
 abs           2           2  0.73010321746205420        6.7900567678119061E-003   2.9033111164554629E-003   5.1000000000000004E-003  0.72464541077034672        3.5453880916929315E-004   3.2678825382875029E-006
 abs           2           3  0.51932897165069924        5.4722571550965028E-003   2.2532434603773498E-003   8.3000000000000001E-003  0.51064899023918797        3.7738827395050159E-004   2.5931375607463589E-006
 abs           2           4  0.37206499787244524        4.5803559928636250E-003   1.8032791245255894E-003   1.1900000000000001E-002  0.35984826144844334        3.1461957701349333E-004   2.1168469883643745E-006
 abs           2           5  0.27531083945488366        3.9023570596671965E-003   1.4533390559911346E-003   2.1499999999999998E-002  0.25358078394870365        2.2834879829565429E-004   1.7067078843687771E-006
 abs           2           6  0.21954034700397798        3.3211361646387915E-003   1.1533487524542257E-003   4.0700000000000000E-002  0.17869535823018576        1.4361282324980082E-004   1.3759505424368435E-006
 abs           2           7  0.18101990984271099        2.9601211252550065E-003   9.5342331116026542E-004   5.5000000000000000E-002  0.12592449063283076        9.4298604005779309E-005   1.1206058744653909E-006
 abs           2           8  0.17369648669107160        2.6639987017196549E-003   8.0339846419726665E-004   8.4900000000000003E-002   8.8737488752851562E-002   5.8082401897544931E-005   9.1553632246759205E-007
 abs           2           9  0.26208618814738438        2.4540169422755786E-003   7.0334838737865011E-004  0.19950000000000001        6.2532251435682779E-002   5.3199784343835970E-005   7.3692735782434783E-007
 abs           2          10  0.32912427535087313        2.2348556714757058E-003   6.0327391697911968E-004  0.28499999999999998        4.4065732810021567E-002   5.7948500665495351E-005   5.9404018610975263E-007
 abs           2          11  0.38231288932845570        1.9161361693465033E-003   4.5319243649270352E-004  0.35120000000000001        3.1052597075949331E-002   5.9810669816527762E-005   4.8158268985289522E-007
 abs           2          12  0.47795853420151563        1.7036446032040579E-003   3.5315973883752000E-004  0.45590000000000003        2.1882395314255648E-002   1.7574462450835985E-004   3.9426275158286472E-007
 abs           2          13  0.65874232127756505        1.6665515460328191E-003   3.5304178152325140E-004  0.64329999999999998        1.5420263352472537E-002   2.1739075014901239E-005   3.1885007762238392E-007
 CDOM           3           1   5.1117009674784501E-003   100.00000000000000        2.0137527074704766     
 CDOM           3           2   5.1117009674784501E-003   100.00000000000000        1.4190675485932573     
 CDOM           3           3   5.1117009674784501E-003   100.00000000000000        1.0000000000000000     
 CDOM           3           4   5.1117009674784501E-003   100.00000000000000       0.70468808971871344     
 CDOM           3           5   5.1117009674784501E-003   100.00000000000000       0.49658530379140947     
 CDOM           3           6   5.1117009674784501E-003   100.00000000000000       0.34993774911115533     
 CDOM           3           7   5.1117009674784501E-003   100.00000000000000       0.24659696394160643     
 CDOM           3           8   5.1117009674784501E-003   100.00000000000000       0.17377394345044514     
 CDOM           3           9   5.1117009674784501E-003   100.00000000000000       0.12245642825298191     
 CDOM           3          10   5.1117009674784501E-003   100.00000000000000        8.6293586499370495E-002
 CDOM           3          11   5.1117009674784501E-003   100.00000000000000        6.0810062625217952E-002
 CDOM           3          12   5.1117009674784501E-003   100.00000000000000        4.2852126867040187E-002
 CDOM           3          13   5.1117009674784501E-003   100.00000000000000        3.0197383422318501E-002
 abs           3           1   1.0360733630773407        9.1025580351682366E-003   3.8049114205432441E-003   6.3000000000000000E-003   1.0293701663039183        3.9887977869931639E-004   4.3169947230313918E-006
 abs           3           2  0.73099169329775193        7.2216197882218648E-003   2.9046274739814590E-003   5.1000000000000004E-003  0.72538489610614254        5.0331255861400825E-004   3.4846329953880838E-006
 abs           3           3  0.52000498822646180        5.8977968678360151E-003   2.2545399698228534E-003   8.3000000000000001E-003  0.51117009674784497        5.3212634474194653E-004   2.7651338748828526E-006
 abs           3           4  0.37256857440920865        5.0081343621745968E-003   1.8045827638735897E-003   1.1900000000000001E-002  0.36021547899856882        4.5083815849703403E-004   2.2572521427615121E-006
 abs           3           5  0.27566888076529733        4.3422432909813935E-003   1.4546772180535400E-003   2.1499999999999998E-002  0.25383955778261275        3.2750307314444161E-004   1.8199095401014693E-006
 abs           3           6  0.21979014744014186        3.7780690198878767E-003   1.1547309556792630E-003   4.0700000000000000E-002  0.17887771306887237        2.1096715737671165E-004   1.4672138927949829E-006
 abs           3           7  0.18119259523560460        3.4433833245716026E-003   9.5487754382493845E-004   5.5000000000000000E-002  0.12605299391575581        1.3840638699572875E-004   1.1949328530743755E-006
 abs           3           8  0.17381385075003256        3.1552898947912258E-003   8.0487098751717823E-004   8.4900000000000003E-002   8.8828043485818589E-002   8.4831002662206530E-005   9.7626155174435397E-007
 abs           3           9  0.26217429908079615        2.9438845910222506E-003   7.0481309221043958E-004  0.19950000000000001        6.2596064277472302E-002   7.7448997421639010E-005   7.8580590219885134E-007
 abs           3          10  0.32919514992319410        2.7180774317683326E-003   6.0471684309326560E-004  0.28499999999999998        4.4110700959601741E-002   8.3815522209802483E-005   6.3344138256244938E-007
 abs           3          11  0.38237021064255294        2.3942582937673436E-003   4.5461745617686960E-004  0.35120000000000001        3.1084285595375172E-002   8.5411522315299287E-005   5.1352486247824392E-007
 abs           3          12  0.47805824714283479        2.1751123170452406E-003   3.5456418987524376E-004  0.45590000000000003        2.1904725836475861E-002   2.5310089314731883E-004   4.2041321158933158E-007
 abs           3          13  0.65876652285116211        2.1209073451781408E-003   3.5439416701771434E-004  0.64329999999999998        1.5435999405518317E-002   3.0183447039740982E-005   3.3999860400345276E-007
 CDOM           4           1   5.1101129495567336E-003   100.00000000000000        2.0137527074704766     
 CDOM           4           2   5.1101129495567336E-003   100.00000000000000        1.4190675485932573     
 CDOM           4           3   5.1101129495567336E-003   100.00000000000000        1.0000000000000000     
 CDOM           4           4   5.1101129495567336E-003   100.00000000000000       0.70468808971871344     
 CDOM           4           5   5.1101129495567336E-003   100.00000000000000       0.49658530379140947     
 CDOM           4           6   5.1101129495567336E-003   100.00000000000000       0.34993774911115533     
 CDOM           4           7   5.1101129495567336E-003   100.00000000000000       0.24659696394160643     
 CDOM           4           8   5.1101129495567336E-003   100.00000000000000       0.17377394345044514     
 CDOM           4           9   5.1101129495567336E-003   100.00000000000000       0.12245642825298191     
 CDOM           4          10   5.1101129495567336E-003   100.00000000000000        8.6293586499370495E-002
 CDOM           4          11   5.1101129495567336E-003   100.00000000000000        6.0810062625217952E-002
 CDOM           4          12   5.1101129495567336E-003   100.00000000000000        4.2852126867040187E-002
 CDOM           4          13   5.1101129495567336E-003   100.00000000000000        3.0197383422318501E-002
 abs           4           1   1.0357893001841736        9.2528874912334112E-003   3.8053832662250484E-003   6.3000000000000000E-003   1.0290503787649814        4.3425544141040734E-004   4.6659777817116369E-006
 abs           4           2  0.73081008573323880        7.3637728591509077E-003   2.9050728151225453E-003   5.1000000000000004E-003  0.72515954563621332        5.4677376855463526E-004   3.7663284708587389E-006
 abs           4           3  0.51989121296886076        6.0369084057646872E-003   2.2549742993981953E-003   8.3000000000000001E-003  0.51101129495567332        5.7692934768023541E-004   2.9886655072401332E-006
 abs           4           4  0.37249618865394635        5.1476947694250102E-003   1.8050186688140257E-003   1.1900000000000001E-002  0.36010357326699943        4.9017566000221047E-004   2.4397269446858231E-006
 abs           4           5  0.27561944388629556        4.4847461730558444E-003   1.4551209448019989E-003   2.1499999999999998E-002  0.25376069914640459        3.5677771004179008E-004   1.9670298491529451E-006
 abs           4           6  0.21975494017052533        3.9242834650951020E-003   1.1551833557065093E-003   4.0700000000000000E-002  0.17882214232716501        2.3121202084626634E-004   1.5858225140457849E-006
 abs           4           7  0.18116767176655571        3.5962585227033404E-003   9.5534763723777660E-004   5.5000000000000000E-002  0.12601383387593779        1.5254636016660470E-004   1.2915304513430577E-006
 abs           4           8  0.17379455990221521        3.3092128439846736E-003   8.0534222112097951E-004   8.4900000000000003E-002   8.8800447872165914E-002   9.3056848145707215E-005   1.0551819035766185E-006
 abs           4           9  0.26216200259877787        3.0961426776657313E-003   7.0527786601443370E-004  0.19950000000000001        6.2576617977202778E-002   8.4535291632500866E-005   8.4932994261875211E-007
 abs           4          10  0.32918909460398771        2.8678388454910424E-003   6.0517328758823619E-004  0.28499999999999998        4.4096997383412724E-002   9.1412572201184856E-005   6.8464837385245915E-007
 abs           4          11  0.38236808184167476        2.5419901391936926E-003   4.5506670121132171E-004  0.35120000000000001        3.1074628848448218E-002   9.2897955346596186E-005   5.5503787991602469E-007
 abs           4          12  0.47807389485109641        2.3198580811197552E-003   3.5500386991849445E-004  0.45590000000000003        2.1897920841931005E-002   2.7551961002196833E-004   4.5439914344773453E-007
 abs           4          13  0.65876426604208516        2.2598267620126816E-003   3.5481579150835124E-004  0.64329999999999998        1.5431204006911959E-002   3.2694551302165766E-005   3.6748387104330209E-007
 CDOM           5           1   5.1074093389973929E-003   100.00000000000000        2.0137527074704766     
 CDOM           5           2   5.1074093389973929E-003   100.00000000000000        1.4190675485932573     
 CDOM           5           3   5.1074093389973929E-003   100.00000000000000        1.0000000000000000     
 CDOM           5           4   5.1074093389973929E-003   100.00000000000000       0.70468808971871344     
 CDOM           5           5   5.1074093389973929E-003   100.00000000000000       0.49658530379140947     
 CDOM           5           6   5.1074093389973929E-003   100.00000000000000       0.34993774911115533     
 CDOM           5           7   5.1074093389973929E-003   100.00000000000000       0.24659696394160643     
 CDOM           5           8   5.1074093389973929E-003   100.00000000000000       0.17377394345044514     
 CDOM           5           9   5.1074093389973929E-003   100.00000000000000       0.12245642825298191     
 CDOM           5          10   5.1074093389973929E-003   100.00000000000000        8.6293586499370495E-002
 CDOM           5          11   5.1074093389973929E-003   100.00000000000000        6.0810062625217952E-002
 CDOM           5          12   5.1074093389973929E-003   100.00000000000000        4.2852126867040187E-002
 CDOM           5          13   5.1074093389973929E-003   100.00000000000000        3.0197383422318501E-002
 abs           5           1   1.0352643926648990        9.3222973023786883E-003   3.8056063749158640E-003   6.3000000000000000E-003   1.0285059384565998        4.5340202668374120E-004   5.0521816154092825E-006
 abs           5           2  0.73044990021856848        7.4301311182887429E-003   2.9052855645752928E-003   5.1000000000000004E-003  0.72477588503533397        5.6993711506776626E-004   4.0780681666865777E-006
 abs           5           3  0.51964533375915056        6.1021818803669329E-003   2.2551821102845043E-003   8.3000000000000001E-003  0.51074093389973929        6.0116382151392507E-004   3.2360378974516974E-006
 abs           5           4  0.37232734786712729        5.2136027676315481E-003   1.8052287241786852E-003   1.1900000000000001E-002  0.35991305305095900        5.1165315257850142E-004   2.6416635897564881E-006
 abs           5           5  0.27550064031337329        4.5526263417228581E-003   1.4553360973579735E-003   2.1499999999999998E-002  0.25362644181931021        3.7206865279380754E-004   2.1298412692411685E-006
 abs           5           6  0.21967074733451358        3.9954163497855095E-003   1.1554066952559237E-003   4.0700000000000000E-002  0.17872753278780412        2.4149746537611104E-004   1.7170813333417170E-006
 abs           5           7  0.18110729204645096        3.6720363615292545E-003   9.5558341926837921E-004   5.5000000000000000E-002  0.12594716366037639        1.5872995541174723E-004   1.3984306628273408E-006
 abs           5           8  0.17375162491479640        3.3869373042234134E-003   8.0558271200984659E-004   8.4900000000000003E-002   8.8753466165320830E-002   9.7016229972988970E-005   1.1425195025696810E-006
 abs           5           9  0.26213278136767082        3.1742324859686056E-003   7.0551866197277621E-004  0.19950000000000001        6.2543510527954399E-002   8.8351210579264754E-005   9.1962913718397723E-007
 abs           5          10  0.32916986475539561        2.9450316788637108E-003   6.0541083926303853E-004  0.28499999999999998        4.4073666958246424E-002   9.5456480304347322E-005   7.4131684487541438E-007
 abs           5          11  0.38235565787652098        2.6184560897619326E-003   4.5530126716927327E-004  0.35120000000000001        3.1058188175705447E-002   9.6868722348857658E-005   6.0097846666960090E-007
 abs           5          12  0.47807465238166869        2.3957665908147137E-003   3.5523654826767029E-004  0.45590000000000003        2.1886335295662213E-002   2.8782507616285539E-004   4.9200984359214584E-007
 abs           5          13  0.65875740867064769        2.3333833982037023E-003   3.5504118356453505E-004  0.64329999999999998        1.5423039810443457E-002   3.3970959626056564E-005   3.9790057820707093E-007
 CDOM           6           1   5.0949443209637648E-003   100.00000000000000        2.0137527074704766     
 CDOM           6           2   5.0949443209637648E-003   100.00000000000000        1.4190675485932573     
 CDOM           6           3   5.0949443209637648E-003   100.00000000000000        1.0000000000000000     
 CDOM           6           4   5.0949443209637648E-003   100.00000000000000       0.70468808971871344     
 CDOM           6           5   5.0949443209637648E-003   100.00000000000000       0.49658530379140947     
 CDOM           6           6   5.0949443209637648E-003   100.00000000000000       0.34993774911115533     
 CDOM           6           7   5.0949443209637648E-003   100.00000000000000       0.24659696394160643     
 CDOM           6           8   5.0949443209637648E-003   100.00000000000000       0.17377394345044514     
 CDOM           6           9   5.0949443209637648E-003   100.00000000000000       0.12245642825298191     
 CDOM           6          10   5.0949443209637648E-003   100.00000000000000        8.6293586499370495E-002
 CDOM           6          11   5.0949443209637648E-003   100.00000000000000        6.0810062625217952E-002
 CDOM           6          12   5.0949443209637648E-003   100.00000000000000        4.2852126867040187E-002
 CDOM           6          13   5.0949443209637648E-003   100.00000000000000        3.0197383422318501E-002
 abs           6           1   1.0327515789776911        9.3198915797179181E-003   3.8056210245996035E-003   6.3000000000000000E-003   1.0259957920752110        4.5011636045248543E-004   5.6705420277045081E-006
 abs           6           2  0.72867729210206245        7.4278803589097851E-003   2.9052995789798689E-003   5.1000000000000004E-003  0.72300701477691875        5.6570012291868666E-004   4.5772022249771681E-006
 abs           6           3  0.51839473928671498        6.0990107752435267E-003   2.2551906578612956E-003   8.3000000000000001E-003  0.50949443209637646        5.9667507845147716E-004   3.6321118870264172E-006
 abs           6           4  0.37144555538695029        5.2105766833126822E-003   1.8052380972910741E-003   1.1900000000000001E-002  0.35903465807631629        5.0793232133845834E-004   2.9649892955317692E-006
 abs           6           5  0.27487915730429419        4.5489438483338673E-003   1.4553425243387787E-003   2.1499999999999998E-002  0.25300744734261077        3.6931943906388199E-004   2.3905226195224887E-006
 abs           6           6  0.21923301377105317        3.9911448024894883E-003   1.1554107738864275E-003   4.0700000000000000E-002  0.17829133475247236        2.3975177553871429E-004   1.9272430420956499E-006
 abs           6           7  0.18079885736929932        3.6670075068218505E-003   9.5558479719306372E-004   5.5000000000000000E-002  0.12563978010011939        1.5750767797162487E-004   1.5695912083221303E-006
 abs           6           8  0.17353443223683981        3.3816735205377717E-003   8.0558310570634864E-004   8.4900000000000003E-002   8.8536856631432390E-002   9.6293247537126248E-005   1.2823578703174900E-006
 abs           6           9  0.26197962110515483        3.1688851677201500E-003   7.0551832951145819E-004  0.19950000000000001        6.2390868369303687E-002   8.7720548952615075E-005   1.0321868985069970E-006
 abs           6          10  0.32906169953237235        2.9396692826730263E-003   6.0540999320577772E-004  0.28499999999999998        4.3966101847056308E-002   9.4765635194992692E-005   8.3205012105860267E-007
 abs           6          11  0.38227921519488051        2.6129621895213816E-003   4.5529939542744447E-004  0.35120000000000001        3.0982388322980507E-002   9.6152336835242055E-005   6.7453506473347737E-007
 abs           6          12  0.47801923024054305        2.3903264289452516E-003   3.5523437432723805E-004  0.45590000000000003        2.1832920042244516E-002   2.8575796904222356E-004   5.5222925629279188E-007
 abs           6          13  0.65871955124413439        2.3282481988356196E-003   3.5503954906517682E-004  0.64329999999999998        1.5385398717550697E-002   3.3705925071027935E-005   4.4660151263947268E-007
 CDOM           7           1   5.0823305368924276E-003   100.00000000000000        2.0137527074704766     
 CDOM           7           2   5.0823305368924276E-003   100.00000000000000        1.4190675485932573     
 CDOM           7           3   5.0823305368924276E-003   100.00000000000000        1.0000000000000000     
 CDOM           7           4   5.0823305368924276E-003   100.00000000000000       0.70468808971871344     
 CDOM           7           5   5.0823305368924276E-003   100.00000000000000       0.49658530379140947     
 CDOM           7           6   5.0823305368924276E-003   100.00000000000000       0.34993774911115533     
 CDOM           7           7   5.0823305368924276E-003   100.00000000000000       0.24659696394160643     
 CDOM           7           8   5.0823305368924276E-003   100.00000000000000       0.17377394345044514     
 CDOM           7           9   5.0823305368924276E-003   100.00000000000000       0.12245642825298191     
 CDOM           7          10   5.0823305368924276E-003   100.00000000000000        8.6293586499370495E-002
 CDOM           7          11   5.0823305368924276E-003   100.00000000000000        6.0810062625217952E-002
 CDOM           7          12   5.0823305368924276E-003   100.00000000000000        4.2852126867040187E-002
 CDOM           7          13   5.0823305368924276E-003   100.00000000000000        3.0197383422318501E-002
 abs           7           1   1.0302071403478923        9.3124506648512104E-003   3.8056213618478493E-003   6.3000000000000000E-003   1.0234556878927008        4.4515333472664733E-004   6.2991204648539584E-006
 abs           7           2  0.72688157980466384        7.4207765315679932E-003   2.9052997966641536E-003   5.1000000000000004E-003  0.72121703361285905        5.5946160763878459E-004   5.0845841660749259E-006
 abs           7           3  0.51712718276460012        6.0909828687797435E-003   2.2551853553349076E-003   8.3000000000000001E-003  0.50823305368924276        5.9009434460208633E-004   4.0347307552659340E-006
 abs           7           4  0.37055140488291671        5.2026469441511080E-003   1.8052334925280082E-003   1.1900000000000001E-002  0.35814577973618084        5.0233148897646128E-004   3.2936577594007627E-006
 abs           7           5  0.27424896804012022        4.5401395676282546E-003   1.4553343248041560E-003   2.1499999999999998E-002  0.25238106536310834        3.6524716544336622E-004   2.6555115685168649E-006
 abs           7           6  0.21878918071422768        3.9813794732419328E-003   1.1553991388681363E-003   4.0700000000000000E-002  0.17784993083190256        2.3710900478151700E-004   2.1408775436104957E-006
 abs           7           7  0.18048624313533029        3.6560004303557176E-003   9.5556904932261172E-004   5.5000000000000000E-002  0.12532872801453873        1.5577154071520001E-004   1.7435800763827787E-006
 abs           7           8  0.17331431819107232        3.3701893357672538E-003   8.0556566962236022E-004   8.4900000000000003E-002   8.8317661931441527E-002   9.5231752649863383E-005   1.4245069809408298E-006
 abs           7           9  0.26182430456240013        3.1572260553093556E-003   7.0549989839892226E-004  0.19950000000000001        6.2236404474890657E-002   8.6753482901977277E-005   1.1466046074913903E-006
 abs           7          10  0.32895189808328407        2.9280388377010765E-003   6.0539116926409714E-004  0.28499999999999998        4.3857252980371880E-002   9.3720820203488980E-005   9.2428270873183895E-007
 abs           7          11  0.38220152518240541        2.6012200060474104E-003   4.5527959358044896E-004  0.35120000000000001        3.0905683823048612E-002   9.5092052216505998E-005   7.4930714026367334E-007
 abs           7          12  0.47796208796060735        2.3786528102414922E-003   3.5521431030841559E-004  0.45590000000000003        2.1778867294714677E-002   2.8260722213498671E-004   6.1344375768839198E-007
 abs           7          13  0.65868113860981292        2.3170555187207241E-003   3.5502053287684730E-004  0.64329999999999998        1.5347308390149849E-002   3.3334112463060711E-005   4.9610720000973979E-007
 CDOM           8           1   4.8795271797591275E-003   100.00000000000000        2.0137527074704766     
 CDOM           8           2   4.8795271797591275E-003   100.00000000000000        1.4190675485932573     
 CDOM           8           3   4.8795271797591275E-003   100.00000000000000        1.0000000000000000     
 CDOM           8           4   4.8795271797591275E-003   100.00000000000000       0.70468808971871344     
 CDOM           8           5   4.8795271797591275E-003   100.00000000000000       0.49658530379140947     
 CDOM           8           6   4.8795271797591275E-003   100.00000000000000       0.34993774911115533     
 CDOM           8           7   4.8795271797591275E-003   100.00000000000000       0.24659696394160643     
 CDOM           8           8   4.8795271797591275E-003   100.00000000000000       0.17377394345044514     
 CDOM           8           9   4.8795271797591275E-003   100.00000000000000       0.12245642825298191     
 CDOM           8          10   4.8795271797591275E-003   100.00000000000000        8.6293586499370495E-002
 CDOM           8          11   4.8795271797591275E-003   100.00000000000000        6.0810062625217952E-002
 CDOM           8          12   4.8795271797591275E-003   100.00000000000000        4.2852126867040187E-002
 CDOM           8          13   4.8795271797591275E-003   100.00000000000000        3.0197383422318501E-002
 abs           8           1  0.98933117831393724        9.1765151841766649E-003   3.8052614483809421E-003   6.3000000000000000E-003  0.98261610694157231        4.0816132476175892E-004   6.9100476032026762E-006
 abs           8           2  0.69805964261380715        7.2909328931549952E-003   2.9049546529583922E-003   5.1000000000000004E-003  0.69243786732749557        5.1619756814827347E-004   5.5777181633694799E-006
 abs           8           3  0.49680334020856337        5.9624138547563054E-003   2.2548424187059874E-003   8.3000000000000001E-003  0.48795271797591278        5.4619618908780725E-004   4.4260435628357012E-006
 abs           8           4  0.35621827218487073        5.0740933956346197E-003   1.8048923122470143E-003   1.1900000000000001E-002  0.34385446870350012        4.6019038458462318E-004   3.6130967859883276E-006
 abs           8           5  0.26414785232129473        4.4072470874293819E-003   1.4549801495652452E-003   2.1499999999999998E-002  0.24231014869191259        3.3479057009846286E-004   2.9130592837030889E-006
 abs           8           6  0.21167021253431736        3.8407019287172569E-003   1.1550185402504603E-003   4.0700000000000000E-002  0.17075307580116131        2.1478822024516983E-004   2.3485129108924128E-006
 abs           8           7  0.17547036255819085        3.5045683278639573E-003   9.5515372622775646E-004   5.5000000000000000E-002  0.12032765879991501        1.4079107516474054E-004   1.9126831110825711E-006
 abs           8           8  0.16978146779577313        3.2146188257447098E-003   8.0513576595162505E-004   8.4900000000000003E-002   8.4793468020037274E-002   8.6437111375925273E-005   1.5626643599399517E-006
 abs           8           9  0.25933323792389412        3.0015047910332722E-003   7.0506857149174205E-004  0.19950000000000001        5.9752946999664880E-002   7.9033114910589264E-005   1.2578093186221863E-006
 abs           8          10  0.32719394319540018        2.7737962444178625E-003   6.0496264280361048E-004  0.28499999999999998        4.2107190076257364E-002   8.5739193857292280E-005   1.0139252855679744E-006
 abs           8          11  0.38096047028387436        2.4474544486973535E-003   4.5484994894427690E-004  0.35120000000000001        2.9672435338260569E-002   8.7212966094923710E-005   8.2197951881234436E-007
 abs           8          12  0.47707028205167040        2.2277317416462320E-003   3.5479440615818767E-004  0.45590000000000003        2.0909811775820894E-002   2.5979733657305115E-004   6.7293927639032592E-007
 abs           8          13  0.65806658091789894        2.1718166838040781E-003   3.5461707580539727E-004  0.64329999999999998        1.4734895316681084E-002   3.1141378514538457E-005   5.4422270338949179E-007
 CDOM           9           1   4.6765279959698177E-003   100.00000000000000        2.0137527074704766     
 CDOM           9           2   4.6765279959698177E-003   100.00000000000000        1.4190675485932573     
 CDOM           9           3   4.6765279959698177E-003   100.00000000000000        1.0000000000000000     
 CDOM           9           4   4.6765279959698177E-003   100.00000000000000       0.70468808971871344     
 CDOM           9           5   4.6765279959698177E-003   100.00000000000000       0.49658530379140947     
 CDOM           9           6   4.6765279959698177E-003   100.00000000000000       0.34993774911115533     
 CDOM           9           7   4.6765279959698177E-003   100.00000000000000       0.24659696394160643     
 CDOM           9           8   4.6765279959698177E-003   100.00000000000000       0.17377394345044514     
 CDOM           9           9   4.6765279959698177E-003   100.00000000000000       0.12245642825298191     
 CDOM           9          10   4.6765279959698177E-003   100.00000000000000        8.6293586499370495E-002
 CDOM           9          11   4.6765279959698177E-003   100.00000000000000        6.0810062625217952E-002
 CDOM           9          12   4.6765279959698177E-003   100.00000000000000        4.2852126867040187E-002
 CDOM           9          13   4.6765279959698177E-003   100.00000000000000        3.0197383422318501E-002
 abs           9           1  0.94841819715884079        9.0555132475538449E-003   3.8048904577064864E-003   6.3000000000000000E-003  0.94173709134457018        3.7358575451978330E-004   7.5200597509317584E-006
 abs           9           2  0.66920853345841069        7.1771323133210108E-003   2.9046077824831031E-003   5.1000000000000004E-003  0.66363091191686274        4.7155142795823516E-004   6.0701135898043922E-006
 abs           9           3  0.47645641602065197        5.8493500829101038E-003   2.2544947456024519E-003   8.3000000000000001E-003  0.46765279959698175        4.9879965337228430E-004   4.8167702979824332E-006
 abs           9           4  0.34187442888090286        4.9605476810651791E-003   1.8045425627576178E-003   1.1900000000000001E-002  0.32954935799960539        4.2113882391129427E-004   3.9320573861081096E-006
 abs           9           5  0.25403866353428739        4.2905792388616137E-003   1.4546200003794816E-003   2.1499999999999998E-002  0.23222950755677033        3.0598575624952762E-004   3.1702212675496629E-006
 abs           9           6  0.20454855740866604        3.7220001067957377E-003   1.1546566479002306E-003   4.0700000000000000E-002  0.16364936805649799        1.9663351486705707E-004   2.5558373009702707E-006
 abs           9           7  0.17045208562875330        3.3813351679679014E-003   9.5478232717504904E-004   5.5000000000000000E-002  0.11532176055940821        1.2824353646632834E-004   2.0815328787709803E-006
 abs           9           8  0.16624651529902007        3.0914814653070638E-003   8.0476840472741746E-004   8.4900000000000003E-002   8.1265871151608257E-002   7.8943532592338483E-005   1.7006148194917572E-006
 abs           9           9  0.25684088214973860        2.8800047328908134E-003   7.0470767525785728E-004  0.19950000000000001        5.7267091501153923E-002   7.2421801107122835E-005   1.3688474775388854E-006
 abs           9          10  0.32543502245282824        2.6545839016114290E-003   6.0460980355210505E-004  0.28499999999999998        4.0355437313694918E-002   7.8481705529369637E-005   1.1034336039765880E-006
 abs           9          11  0.37971859992173201        2.3303025510257197E-003   4.5450515639294879E-004  0.35120000000000001        2.8437996030350961E-002   7.9709348325691890E-005   8.9454305533959476E-007
 abs           9          12  0.47617857632644373        2.1124605221189870E-003   3.5445396270046174E-004  0.45590000000000003        2.0039917098056383E-002   2.3792688269917071E-004   7.3234568816263519E-007
 abs           9          13  0.65745082232278174        2.0613271891324011E-003   3.5429119632974902E-004  0.64329999999999998        1.4121890897950733E-002   2.8339158687225599E-005   5.9226614378253386E-007
 CDOM          10           1   4.3922827625537241E-003   100.00000000000000        2.0137527074704766     
 CDOM          10           2   4.3922827625537241E-003   100.00000000000000        1.4190675485932573     
 CDOM          10           3   4.3922827625537241E-003   100.00000000000000        1.0000000000000000     
 CDOM          10           4   4.3922827625537241E-003   100.00000000000000       0.70468808971871344     
 CDOM          10           5   4.3922827625537241E-003   100.00000000000000       0.49658530379140947     
 CDOM          10           6   4.3922827625537241E-003   100.00000000000000       0.34993774911115533     
 CDOM          10           7   4.3922827625537241E-003   100.00000000000000       0.24659696394160643     
 CDOM          10           8   4.3922827625537241E-003   100.00000000000000       0.17377394345044514     
 CDOM          10           9   4.3922827625537241E-003   100.00000000000000       0.12245642825298191     
 CDOM          10          10   4.3922827625537241E-003   100.00000000000000        8.6293586499370495E-002
 CDOM          10          11   4.3922827625537241E-003   100.00000000000000        6.0810062625217952E-002
 CDOM          10          12   4.3922827625537241E-003   100.00000000000000        4.2852126867040187E-002
 CDOM          10          13   4.3922827625537241E-003   100.00000000000000        3.0197383422318501E-002
 abs          10           1  0.89111637314694570        8.8311985926317303E-003   3.8041804491774876E-003   6.3000000000000000E-003  0.88449713050684664        3.1144071388758187E-004   7.8019262115441104E-006
 abs          10           2  0.62879303691574973        6.9655322748835794E-003   2.9039413581336852E-003   5.1000000000000004E-003  0.62329459325855341        3.9214602394710841E-004   6.2976332491875656E-006
 abs          10           3  0.44794791563880881        5.6401090967348735E-003   2.2538335980280448E-003   8.3000000000000001E-003  0.43922827625537242        4.1464207122249937E-004   4.9973122139302147E-006
 abs          10           4  0.32177402588204967        4.7500674661015386E-003   1.8038762094307135E-003   1.1900000000000001E-002  0.30951893494484173        3.5101149866594120E-004   4.0794385419838485E-006
 abs          10           5  0.23987221543621343        4.0745921656779429E-003   1.4539366758140758E-003   2.1499999999999998E-002  0.21811430699805123        2.5461939083773396E-004   3.2890473244744781E-006
 abs          10           6  0.19456917211196298        3.5014253934993944E-003   1.1539677269193978E-003   4.0700000000000000E-002  0.15370255433877775        1.6396613813297870E-004   2.6516350522895017E-006
 abs          10           7  0.16342077787484474        3.1516484717115621E-003   9.5407365409488703E-004   5.5000000000000000E-002  0.10831235940188003        1.0625892018656322E-004   2.1595527781626998E-006
 abs          10           8  0.16129382558932664        2.8609733510592873E-003   8.0406399849508798E-004   8.4900000000000003E-002   7.6326429639837587E-002   6.5631592319637439E-005   1.7643571694080147E-006
 abs          10           9  0.25334820841651035        2.6518306287184991E-003   7.0401349270917410E-004  0.19950000000000001        5.3786325897946928E-002   6.0462364021000360E-005   1.4201545424281271E-006
 abs          10          10  0.32296916031434320        2.4304577229091878E-003   6.0393030004966309E-004  0.28499999999999998        3.7902583250012382E-002   6.5432271889970749E-005   1.1447924408442175E-006
 abs          10          11  0.37797675549881887        2.1098722493939365E-003   4.5384060068133752E-004  0.35120000000000001        2.6709498985855729E-002   6.6328440694821136E-005   9.2807226830132545E-007
 abs          10          12  0.47492111783390156        1.8951456612441855E-003   3.5379715540736427E-004  0.45590000000000003        1.8821865817686592E-002   1.9849222078651031E-004   7.5979542844449171E-007
 abs          10          13  0.65658761183834902        1.8524836456268203E-003   3.5366054123420665E-004  0.64329999999999998        1.3263544668007514E-002   2.3452704911088324E-005   6.1446543038631718E-007
 CDOM          11           1   4.0809033884440333E-003   100.00000000000000        2.0137527074704766     
 CDOM          11           2   4.0809033884440333E-003   100.00000000000000        1.4190675485932573     
 CDOM          11           3   4.0809033884440333E-003   100.00000000000000        1.0000000000000000     
 CDOM          11           4   4.0809033884440333E-003   100.00000000000000       0.70468808971871344     
 CDOM          11           5   4.0809033884440333E-003   100.00000000000000       0.49658530379140947     
 CDOM          11           6   4.0809033884440333E-003   100.00000000000000       0.34993774911115533     
 CDOM          11           7   4.0809033884440333E-003   100.00000000000000       0.24659696394160643     
 CDOM          11           8   4.0809033884440333E-003   100.00000000000000       0.17377394345044514     
 CDOM          11           9   4.0809033884440333E-003   100.00000000000000       0.12245642825298191     
 CDOM          11          10   4.0809033884440333E-003   100.00000000000000        8.6293586499370495E-002
 CDOM          11          11   4.0809033884440333E-003   100.00000000000000        6.0810062625217952E-002
 CDOM          11          12   4.0809033884440333E-003   100.00000000000000        4.2852126867040187E-002
 CDOM          11          13   4.0809033884440333E-003   100.00000000000000        3.0197383422318501E-002
 abs          11           1  0.82833028427398481        8.5428385868080905E-003   3.8032526729869674E-003   6.3000000000000000E-003  0.82179302474046145        2.2929954447946811E-004   7.9599890438802877E-006
 abs          11           2  0.58450107235205429        6.6932586208047649E-003   2.9030702020476579E-003   5.1000000000000004E-003  0.57910775674851922        2.8689038362064229E-004   6.4252199145046757E-006
 abs          11           3  0.41669804211948402        5.3705795057195863E-003   2.2529688690380743E-003   8.3000000000000001E-003  0.40809033884440332        3.0260472000688885E-004   5.0985550738579620E-006
 abs          11           4  0.29973909502611107        4.4784919014919282E-003   1.8030028077691638E-003   1.1900000000000001E-002  0.28757640131292506        2.5853162741140538E-004   4.1620857745779278E-006
 abs          11           5  0.22434221209769223        3.7956047560285264E-003   1.4530406020665256E-003   2.1499999999999998E-002  0.20265166488938724        1.8719152664925349E-004   3.3556816557534544E-006
 abs          11           6  0.18363062983042486        3.2162315159624680E-003   1.1530652657015196E-003   4.0700000000000000E-002  0.14280621460921916        1.2170986545219404E-004   2.7053557534756533E-006
 abs          11           7  0.15571458777038391        2.8544407744530973E-003   9.5314647309769805E-004   5.5000000000000000E-002  0.10063383857293128        7.8545893295702926E-005   2.2033041569171905E-006
 abs          11           8  0.15586579241760973        2.5622356563891236E-003   8.0314214278975849E-004   8.4900000000000003E-002   7.0915467465020338E-002   4.8524850491890312E-005   1.8001020975049538E-006
 abs          11           9  0.24951949620965136        2.3555030742751504E-003   7.0310358701147129E-004  0.19950000000000001        4.9973285299434747E-002   4.4761984106324257E-005   1.4489261102749410E-006
 abs          11          10  0.32026499664210223        2.1393107342111937E-003   6.0303985869599906E-004  0.28499999999999998        3.5215578954626930E-002   4.8249702154793630E-005   1.1679853204909312E-006
 abs          11          11  0.37606569095055364        1.8236222982130912E-003   4.5297087029920252E-004  0.35120000000000001        2.4815999061874580E-002   4.8745014165303216E-005   9.4687451371647856E-007
 abs          11          12  0.47353430329201118        1.6121018990606841E-003   3.5293451128152277E-004  0.45590000000000003        1.7487538973373788E-002   1.4598913016181648E-004   7.7518847551513899E-007
 abs          11          13  0.65564082743011454        1.5799887034421290E-003   3.5283062581542319E-004  0.64329999999999998        1.2323260433028324E-002   1.6940082916412011E-005   6.2691416979580040E-007
 CDOM          12           1   3.7694152786285845E-003   100.00000000000000        2.0137527074704766     
 CDOM          12           2   3.7694152786285845E-003   100.00000000000000        1.4190675485932573     
 CDOM          12           3   3.7694152786285845E-003   100.00000000000000        1.0000000000000000     
 CDOM          12           4   3.7694152786285845E-003   100.00000000000000       0.70468808971871344     
 CDOM          12           5   3.7694152786285845E-003   100.00000000000000       0.49658530379140947     
 CDOM          12           6   3.7694152786285845E-003   100.00000000000000       0.34993774911115533     
 CDOM          12           7   3.7694152786285845E-003   100.00000000000000       0.24659696394160643     
 CDOM          12           8   3.7694152786285845E-003   100.00000000000000       0.17377394345044514     
 CDOM          12           9   3.7694152786285845E-003   100.00000000000000       0.12245642825298191     
 CDOM          12          10   3.7694152786285845E-003   100.00000000000000        8.6293586499370495E-002
 CDOM          12          11   3.7694152786285845E-003   100.00000000000000        6.0810062625217952E-002
 CDOM          12          12   3.7694152786285845E-003   100.00000000000000        4.2852126867040187E-002
 CDOM          12          13   3.7694152786285845E-003   100.00000000000000        3.0197383422318501E-002
 abs          12           1  0.76552764570925413        8.2667150697050447E-003   3.8023954715825691E-003   6.3000000000000000E-003  0.75906702229188927        1.5251027004364593E-004   8.1131473213279579E-006
 abs          12           2  0.54020290095296342        6.4316207504746623E-003   2.9022610390026767E-003   5.1000000000000004E-003  0.53490548990734355        1.9086219794551504E-004   6.5488476744052458E-006
 abs          12           3  0.38544833576223403        5.1118784442171503E-003   2.2521675833649291E-003   8.3000000000000001E-003  0.37694152786285845        2.0161124292140815E-004   5.1966564541839200E-006
 abs          12           4  0.27770270173881162        4.2182138239772807E-003   1.8021956970630316E-003   1.1900000000000001E-002  0.26562620520533092        1.7225436494664351E-004   4.2421685340276906E-006
 abs          12           5  0.20881139321380654        3.5279147279250918E-003   1.4522114021862957E-003   2.1499999999999998E-002  0.18718362312537559        1.2434984005039467E-004   3.4202483805598253E-006
 abs          12           6  0.17268938776636150        2.9399837554008172E-003   1.1522177789095719E-003   4.0700000000000000E-002  0.13190606980684852        8.0560549965878381E-005   2.7574095471179985E-006
 abs          12           7  0.14800643815249379        2.5639940391662345E-003   9.5226338880328261E-004   5.5000000000000000E-002   9.2952636354491344E-002   5.1556100034747737E-005   2.2456979677009086E-006
 abs          12           8  0.15043648717017388        2.2683597173018713E-003   8.0225482798932388E-004   8.4900000000000003E-002   6.5502615746964754E-002   3.2036685318159117E-005   1.8347378909669760E-006
 abs          12           9  0.24569013173598386        2.0631052472327633E-003   7.0222375939702256E-004  0.19950000000000001        4.6158913162307504E-002   2.9741768755442126E-005   1.4768049209083895E-006
 abs          12          10  0.31756086862854815        1.8513444352550466E-003   6.0217546584210744E-004  0.28499999999999998        3.2527636339838448E-002   3.2041830164860913E-005   1.1904585448615206E-006
 abs          12          11  0.37415524175998566        1.5394099818096939E-003   4.5212097474244033E-004  0.35120000000000001        2.2921837915385761E-002   3.2438751258428347E-005   9.6509334149129940E-007
 abs          12          12  0.47215060306123313        1.3315157243923353E-003   3.5209450224811452E-004  0.45590000000000003        1.6152746173435175E-002   9.7066783908467065E-005   7.9010388946265722E-007
 abs          12          13  0.65469454352632606        1.3097361152810713E-003   3.5202221327003852E-004  0.64329999999999998        1.1382647844669289E-002   1.1256705021361895E-005   6.3897663543792079E-007
 CDOM          13           1   3.3339088460269859E-003   100.00000000000000        2.0137527074704766     
 CDOM          13           2   3.3339088460269859E-003   100.00000000000000        1.4190675485932573     
 CDOM          13           3   3.3339088460269859E-003   100.00000000000000        1.0000000000000000     
 CDOM          13           4   3.3339088460269859E-003   100.00000000000000       0.70468808971871344     
 CDOM          13           5   3.3339088460269859E-003   100.00000000000000       0.49658530379140947     
 CDOM          13           6   3.3339088460269859E-003   100.00000000000000       0.34993774911115533     
 CDOM          13           7   3.3339088460269859E-003   100.00000000000000       0.24659696394160643     
 CDOM          13           8   3.3339088460269859E-003   100.00000000000000       0.17377394345044514     
 CDOM          13           9   3.3339088460269859E-003   100.00000000000000       0.12245642825298191     
 CDOM          13          10   3.3339088460269859E-003   100.00000000000000        8.6293586499370495E-002
 CDOM          13          11   3.3339088460269859E-003   100.00000000000000        6.0810062625217952E-002
 CDOM          13          12   3.3339088460269859E-003   100.00000000000000        4.2852126867040187E-002
 CDOM          13          13   3.3339088460269859E-003   100.00000000000000        3.0197383422318501E-002
 abs          13           1  0.67781550328919571        8.2270551754672506E-003   3.8022720873337195E-003   6.3000000000000000E-003  0.67136679651466158        1.4054953398888578E-004   8.1572405452181419E-006
 abs          13           2  0.47838668786766431        6.3939110658966340E-003   2.9021442866514879E-003   5.1000000000000004E-003  0.47310418533648907        1.7591809191164762E-004   6.5844392636237930E-006
 abs          13           3  0.34188193754962032        5.0743673951034593E-003   2.2520511061852365E-003   8.3000000000000001E-003  0.33339088460269861        1.8582804774896439E-004   5.2248991727541038E-006
 abs          13           4  0.24699988985748117        4.1803648140207803E-003   1.8020779638773675E-003   1.1900000000000001E-002  0.23493658560030772        1.5903903335895257E-004   4.2652238144931464E-006
 abs          13           5  0.18717521120443037        3.4887838722365543E-003   1.4520897765452796E-003   2.1499999999999998E-002  0.16555701371171783        1.1475865601212994E-004   3.4388367004350990E-006
 abs          13           6  0.15744321078191023        2.8993094787557665E-003   1.1520928597707832E-003   4.0700000000000000E-002  0.11666605573204529        7.4382654385541841E-005   2.7723954794205448E-006
 abs          13           7  0.13726317119204576        2.5209473104654701E-003   9.5213262624737141E-004   5.5000000000000000E-002   8.2213179948831941E-002   4.7733340357026985E-005   2.2579028567973094E-006
 abs          13           8  0.14286609764293137        2.2245288418765606E-003   8.0212278974579258E-004   8.4900000000000003E-002   5.7934648727843228E-002   2.9604205788383977E-005   1.8447092997682856E-006
 abs          13           9  0.24035476658212010        2.0192290808540700E-003   7.0209207192947407E-004  0.19950000000000001        4.0825856940548536E-002   2.7424810531150505E-005   1.4848310404204262E-006
 abs          13          10  0.31380021655808182        1.8080621010997397E-003   6.0204593921932281E-004  0.28499999999999998        2.8769495138564621E-002   2.9524491084309174E-005   1.1969284329421390E-006
 abs          13          11  0.37150445677437688        1.4966447914548061E-003   4.5199359865339084E-004  0.35120000000000001        2.0273520571366915E-002   2.9965864592144005E-005   9.7033841779719053E-007
 abs          13          12  0.47027655473731544        1.2890305370283140E-003   3.5196766577486180E-004  0.45590000000000003        1.4286508483309595E-002   8.9251856070397625E-005   7.9439793544934832E-007
 abs          13          13  0.65337854087422820        1.2686625418565215E-003   3.5189966375407099E-004  0.64329999999999998        1.0067532371853632E-002   1.0366053037499389E-005   6.4244933705803003E-007
 CDOM          14           1   2.8570521118369521E-003   100.00000000000000        2.0137527074704766     
 CDOM          14           2   2.8570521118369521E-003   100.00000000000000        1.4190675485932573     
 CDOM          14           3   2.8570521118369521E-003   100.00000000000000        1.0000000000000000     
 CDOM          14           4   2.8570521118369521E-003   100.00000000000000       0.70468808971871344     
 CDOM          14           5   2.8570521118369521E-003   100.00000000000000       0.49658530379140947     
 CDOM          14           6   2.8570521118369521E-003   100.00000000000000       0.34993774911115533     
 CDOM          14           7   2.8570521118369521E-003   100.00000000000000       0.24659696394160643     
 CDOM          14           8   2.8570521118369521E-003   100.00000000000000       0.17377394345044514     
 CDOM          14           9   2.8570521118369521E-003   100.00000000000000       0.12245642825298191     
 CDOM          14          10   2.8570521118369521E-003   100.00000000000000        8.6293586499370495E-002
 CDOM          14          11   2.8570521118369521E-003   100.00000000000000        6.0810062625217952E-002
 CDOM          14          12   2.8570521118369521E-003   100.00000000000000        4.2852126867040187E-002
 CDOM          14          13   2.8570521118369521E-003   100.00000000000000        3.0197383422318501E-002
 abs          14           1  0.58179001551975984        8.2514019243316878E-003   3.8023535604908574E-003   6.3000000000000000E-003  0.57533964255959058        1.4221290409116165E-004   8.1600560782074665E-006
 abs          14           2  0.41072026179324594        6.4159329927286277E-003   2.9022180320931847E-003   5.1000000000000004E-003  0.40543499365476532        1.7868142654817230E-004   6.5867119324092944E-006
 abs          14           3  0.29419887332994277        5.0951777024496733E-003   2.2521210194591840E-003   8.3000000000000001E-003  0.28570521118369524        1.8843544366153620E-004   5.2267025860413845E-006
 abs          14           4  0.21339825582395830        4.2008116067919921E-003   1.8021468233802558E-003   1.1900000000000001E-002  0.20133305949171981        1.6092963624987649E-004   4.2666959886052114E-006
 abs          14           5  0.16349736337647361        3.5086811142949221E-003   1.4521569700105808E-003   2.1499999999999998E-002  0.14187700909044410        1.1691426238872536E-004   3.4400236408129520E-006
 abs          14           6  0.14075781646965063        2.9173929304729777E-003   1.1521540428650308E-003   4.0700000000000000E-002   9.9979038510949594E-002   7.6004606308444016E-005   2.7733523925933873E-006
 abs          14           7  0.12550640332494670        2.5376031081906585E-003   9.5218909776567835E-004   5.5000000000000000E-002   7.0454037660194743E-002   5.0106982562962163E-005   2.2586821889678841E-006
 abs          14           8  0.13458051888021974        2.2392218828710280E-003   8.0217280528746971E-004   8.4900000000000003E-002   4.9648121211732940E-002   3.0552322471739979E-005   1.8453460150717539E-006
 abs          14           9  0.23451567506503243        2.0320990193788586E-003   7.0213617655971174E-004  0.19950000000000001        3.4986439694819217E-002   2.7750026672179063E-005   1.4853435410331892E-006
 abs          14          10  0.30968566214931337        1.8201277104814651E-003   6.0208734437458284E-004  0.28499999999999998        2.4654527354601118E-002   2.9937453150522648E-005   1.1973415618023376E-006
 abs          14          11  0.36860520467998170        1.5079532048073042E-003   4.5203239596242338E-004  0.35120000000000001        1.7373751784431627E-002   3.0482222212625647E-005   9.7067333740768546E-007
 abs          14          12  0.46823384227399184        1.2988920734594933E-003   3.5200193180550787E-004  0.45590000000000003        1.2243075956218217E-002   8.9971645645744384E-005   7.9467212787772052E-007
 abs          14          13  0.65193881432094836        1.2772605419642884E-003   3.5192981119115945E-004  0.64329999999999998        8.6275498078685255E-003   1.0621841996678781E-005   6.4267108328365993E-007
 CDOM          15           1   2.3799829560810239E-003   100.00000000000000        2.0137527074704766     
 CDOM          15           2   2.3799829560810239E-003   100.00000000000000        1.4190675485932573     
 CDOM          15           3   2.3799829560810239E-003   100.00000000000000        1.0000000000000000     
 CDOM          15           4   2.3799829560810239E-003   100.00000000000000       0.70468808971871344     
 CDOM          15           5   2.3799829560810239E-003   100.00000000000000       0.49658530379140947     
 CDOM          15           6   2.3799829560810239E-003   100.00000000000000       0.34993774911115533     
 CDOM          15           7   2.3799829560810239E-003   100.00000000000000       0.24659696394160643     
 CDOM          15           8   2.3799829560810239E-003   100.00000000000000       0.17377394345044514     
 CDOM          15           9   2.3799829560810239E-003   100.00000000000000       0.12245642825298191     
 CDOM          15          10   2.3799829560810239E-003   100.00000000000000        8.6293586499370495E-002
 CDOM          15          11   2.3799829560810239E-003   100.00000000000000        6.0810062625217952E-002
 CDOM          15          12   2.3799829560810239E-003   100.00000000000000        4.2852126867040187E-002
 CDOM          15          13   2.3799829560810239E-003   100.00000000000000        3.0197383422318501E-002
 abs          15           1  0.48567840501176790        8.1001652526447674E-003   3.8018902897769026E-003   6.3000000000000000E-003  0.47926971215417508        1.0053159981261463E-004   8.1612577802152394E-006
 abs          15           2  0.34296958430795949        6.2722561856854188E-003   2.9017791221796927E-003   5.1000000000000004E-003  0.33773565791796328        1.2733870806255047E-004   6.5876819337031501E-006
 abs          15           3  0.24643831141142439        4.9532192292786586E-003   2.2516873138136461E-003   8.3000000000000001E-003  0.23799829560810240        1.3478833101832077E-004   5.2274723036672777E-006
 abs          15           4  0.17973306568514302        4.0580172137471490E-003   1.8017103174211091E-003   1.1900000000000001E-002  0.16771456428838336        1.1423407243012389E-004   4.2673243295243086E-006
 abs          15           5  0.13977287433004562        3.3616879060201954E-003   1.4517082382296848E-003   2.1499999999999998E-002  0.11818645592638720        8.2977873417743514E-005   3.4405302406789735E-006
 abs          15           6  0.12404063961891132        2.7647753645241480E-003   1.1516913861817930E-003   4.0700000000000000E-002   8.3284587857390721E-002   5.3278000706413234E-005   2.7737608141908001E-006
 abs          15           7  0.11372726986922098        2.3762532378578519E-003   9.5170310475242216E-004   5.5000000000000000E-002   5.8689657120235016E-002   3.5353734169020532E-005   2.2590148169419306E-006
 abs          15           8  0.12628127673733872        2.0752274526845632E-003   8.0168128838776522E-004   8.4900000000000003E-002   4.1357902362304709E-002   2.1528757261455786E-005   1.8456177725192632E-006
 abs          15           9  0.22866540492934687        1.8685099512149167E-003   7.0164719263794120E-004  0.19950000000000001        2.9144421210465569E-002   1.9498156599084501E-005   1.4855622822156497E-006
 abs          15          10  0.30556002464171500        1.6587810341407287E-003   6.0160586952787566E-004  0.28499999999999998        2.0537726508760533E-002   2.1100615064546455E-005   1.1975178899727591E-006
 abs          15          11  0.36569536709607026        1.3483794473273035E-003   4.5155739827680498E-004  0.35120000000000001        1.4472691260623841E-002   2.1705019161456001E-005   9.7081628496677998E-007
 abs          15          12  0.46616290631385920        1.1413296462367880E-003   3.5153285249130823E-004  0.45590000000000003        1.0198733157537738E-002   6.3378367165080581E-005   7.9478915637390231E-007
 abs          15          13  0.65049523714328827        1.1253533854439016E-003   3.5147792404192847E-004  0.64329999999999998        7.1869257863361692E-003   7.6685912250140637E-006   6.4276572713459892E-007
 CDOM          16           1   1.6647087366946031E-003   100.00000000000000        2.0137527074704766     
 CDOM          16           2   1.6647087366946031E-003   100.00000000000000        1.4190675485932573     
 CDOM          16           3   1.6647087366946031E-003   100.00000000000000        1.0000000000000000     
 CDOM          16           4   1.6647087366946031E-003   100.00000000000000       0.70468808971871344     
 CDOM          16           5   1.6647087366946031E-003   100.00000000000000       0.49658530379140947     
 CDOM          16           6   1.6647087366946031E-003   100.00000000000000       0.34993774911115533     
 CDOM          16           7   1.6647087366946031E-003   100.00000000000000       0.24659696394160643     
 CDOM          16           8   1.6647087366946031E-003   100.00000000000000       0.17377394345044514     
 CDOM          16           9   1.6647087366946031E-003   100.00000000000000       0.12245642825298191     
 CDOM          16          10   1.6647087366946031E-003   100.00000000000000        8.6293586499370495E-002
 CDOM          16          11   1.6647087366946031E-003   100.00000000000000        6.0810062625217952E-002
 CDOM          16          12   1.6647087366946031E-003   100.00000000000000        4.2852126867040187E-002
 CDOM          16          13   1.6647087366946031E-003   100.00000000000000        3.0197383422318501E-002
 abs          16           1  0.34156168681894716        7.8166489170854690E-003   3.8009926077929475E-003   6.3000000000000000E-003  0.33523117256685137        2.2351275714089688E-005   8.1629763816583727E-006
 abs          16           2  0.24136840735128923        6.0042070692310047E-003   2.9009340733259625E-003   5.1000000000000004E-003  0.23623341461029887        2.8403671819562691E-005   6.5890691708157443E-006
 abs          16           3  0.17480622462115220        4.6885775208469630E-003   2.2508519969359733E-003   8.3000000000000001E-003  0.16647087366946031        3.0122378584676430E-005   5.2285731072060164E-006
 abs          16           4  0.12923976245590452        3.7917290397034989E-003   1.8008684084859364E-003   1.1900000000000001E-002  0.11731004195993726        2.5452273022574512E-005   4.2682229446579729E-006
 abs          16           5  0.10418890060174896        3.0883746428586761E-003   1.4508454543022350E-003   2.1499999999999998E-002   8.2666989373570296E-002   1.8469973429527515E-005   3.4412547491304906E-006
 abs          16           6   9.8969004517217490E-002   2.4843958854078438E-003   1.1508165776375119E-003   4.0700000000000000E-002   5.8254442824458436E-002   1.1787347845026309E-005   2.7743449140276822E-006
 abs          16           7   9.6061293508325568E-002   2.0831023193733870E-003   9.5079852803479654E-004   5.5000000000000000E-002   4.1051212031595626E-002   7.8219862086235820E-006   2.2594905213283146E-006
 abs          16           8  0.11383491542333105        1.7798974014987701E-003   8.0077764032616744E-004   8.4900000000000003E-002   2.8928300187182992E-002   4.7692297244785057E-006   1.8460064235645732E-006
 abs          16           9  0.21989123766550239        1.5754718862740398E-003   7.0075421890657347E-004  0.19950000000000001        2.0385428597715482E-002   4.3231926743033554E-006   1.4858751126090567E-006
 abs          16          10  0.29937125005429960        1.3705995033034153E-003   6.0073035248569726E-004  0.28499999999999998        1.4365368736621352E-002   4.6835476143888807E-006   1.1977700638446436E-006
 abs          16          11  0.36132891536801920        1.0645258205064733E-003   4.5069921266873737E-004  0.35120000000000001        1.0123104253114627E-002   4.8400941846466873E-006   9.7102071990968880E-007
 abs          16          12  0.46304849636130918        8.6132084652555565E-004   3.5068488915318476E-004  0.45590000000000003        7.1336309981507333E-003   1.4070406634995472E-005   7.9495652344254735E-007
 abs          16          13  0.64832934625506078        8.5592245308891194E-004   3.5066262373259895E-004  0.64329999999999998        5.0269848008450378E-003   1.7185531346748195E-006   6.4290108103910711E-007
 CDOM          17           1   1.3011987909267674E-003   100.00000000000000        2.0137527074704766     
 CDOM          17           2   1.3011987909267674E-003   100.00000000000000        1.4190675485932573     
 CDOM          17           3   1.3011987909267674E-003   100.00000000000000        1.0000000000000000     
 CDOM          17           4   1.3011987909267674E-003   100.00000000000000       0.70468808971871344     
 CDOM          17           5   1.3011987909267674E-003   100.00000000000000       0.49658530379140947     
 CDOM          17           6   1.3011987909267674E-003   100.00000000000000       0.34993774911115533     
 CDOM          17           7   1.3011987909267674E-003   100.00000000000000       0.24659696394160643     
 CDOM          17           8   1.3011987909267674E-003   100.00000000000000       0.17377394345044514     
 CDOM          17           9   1.3011987909267674E-003   100.00000000000000       0.12245642825298191     
 CDOM          17          10   1.3011987909267674E-003   100.00000000000000        8.6293586499370495E-002
 CDOM          17          11   1.3011987909267674E-003   100.00000000000000        6.0810062625217952E-002
 CDOM          17          12   1.3011987909267674E-003   100.00000000000000        4.2852126867040187E-002
 CDOM          17          13   1.3011987909267674E-003   100.00000000000000        3.0197383422318501E-002
 abs          17           1  0.26835449745297452        7.7975952796505614E-003   3.8009326145020061E-003   6.3000000000000000E-003  0.26202925881860889        1.7066584969249227E-005   8.1720493963258382E-006
 abs          17           2  0.18977720980482723        5.9861939029709002E-003   2.9008776018387967E-003   5.1000000000000004E-003  0.18464889784729582        2.1715564718050630E-005   6.5963928133741244E-006
 abs          17           3  0.13844816145295444        4.6707808557159445E-003   2.2507961035925002E-003   8.3000000000000001E-003  0.13011987909267675        2.3047975697015486E-005   5.2343845806531520E-006
 abs          17           4  0.10361765361306981        3.7738248420953542E-003   1.8008120882208429E-003   1.1900000000000001E-002   9.1693929032248336E-002   1.9451613816847753E-005   4.2729670046148178E-006
 abs          17           5   8.6133172998396595E-002   3.0699908628676539E-003   1.4507876948899791E-003   2.1499999999999998E-002   6.4615619688538350E-002   1.4108230210774400E-005   3.4450796474706969E-006
 abs          17           6   8.6245615898020531E-002   2.4655309336266903E-003   1.1507579789837444E-003   4.0700000000000000E-002   4.5533857604306983E-002   8.9808651605436110E-006   2.7774285529996315E-006
 abs          17           7   8.7095386364236943E-002   2.0633711184113212E-003   9.5073789516895242E-004   5.5000000000000000E-002   3.2087167132702994E-002   5.9572296258734042E-006   2.2620019080679691E-006
 abs          17           8  0.10751692765392090        1.7600180434767798E-003   8.0071705773794219E-004   8.4900000000000003E-002   2.2611444511229567E-002   3.6350844618433039E-006   1.8480582294959087E-006
 abs          17           9  0.21543880049003442        1.5557465203136374E-003   7.0069434550913007E-004  0.19950000000000001        1.5934015638399052E-002   3.2973249968792289E-006   1.4875266384815334E-006
 abs          17          10  0.29623328376422048        1.3511998613014841E-003   6.0067164227257355E-004  0.28499999999999998        1.1228511041771531E-002   3.5736210833093520E-006   1.1991013656700334E-006
 abs          17          11  0.35911727004498656        1.0454145214193358E-003   4.5064164851185885E-004  0.35120000000000001        7.9125979964114607E-003   3.6999485815132176E-006   9.7209999354987098E-007
 abs          17          12  0.46148744712938411        8.4246988003306897E-004   3.5062801242576177E-004  0.45590000000000003        5.5759135668033144E-003   1.0737722476160275E-005   7.9584010460950973E-007
 abs          17          13  0.64723123970800522        8.3778603956600616E-004   3.5060794761469934E-004  0.64329999999999998        3.9292798798272847E-003   1.3162125228530095E-006   6.4361565507010691E-007
 CDOM          18           1   9.3780138133883371E-004   100.00000000000000        2.0137527074704766     
 CDOM          18           2   9.3780138133883371E-004   100.00000000000000        1.4190675485932573     
 CDOM          18           3   9.3780138133883371E-004   100.00000000000000        1.0000000000000000     
 CDOM          18           4   9.3780138133883371E-004   100.00000000000000       0.70468808971871344     
 CDOM          18           5   9.3780138133883371E-004   100.00000000000000       0.49658530379140947     
 CDOM          18           6   9.3780138133883371E-004   100.00000000000000       0.34993774911115533     
 CDOM          18           7   9.3780138133883371E-004   100.00000000000000       0.24659696394160643     
 CDOM          18           8   9.3780138133883371E-004   100.00000000000000       0.17377394345044514     
 CDOM          18           9   9.3780138133883371E-004   100.00000000000000       0.12245642825298191     
 CDOM          18          10   9.3780138133883371E-004   100.00000000000000        8.6293586499370495E-002
 CDOM          18          11   9.3780138133883371E-004   100.00000000000000        6.0810062625217952E-002
 CDOM          18          12   9.3780138133883371E-004   100.00000000000000        4.2852126867040187E-002
 CDOM          18          13   9.3780138133883371E-004   100.00000000000000        3.0197383422318501E-002
 abs          18           1  0.19516988572300575        7.7783951585216077E-003   3.8008718048157131E-003   6.3000000000000000E-003  0.18885000707406294        1.1697367267158473E-005   8.1812816756560224E-006
 abs          18           2  0.13820184472247277        5.9680514719523733E-003   2.9008204083019653E-003   5.1000000000000004E-003  0.13308035072838692        1.4890149073172770E-005   6.6038450127027371E-006
 abs          18           3  0.10210118678190314        4.6528513771399039E-003   2.2507394668455113E-003   8.3000000000000001E-003   9.3780138133883376E-002   1.5808349953000940E-005   5.2402980667600672E-006
 abs          18           4   7.8003361699836932E-002   3.7557817686737446E-003   1.8007549898410959E-003   1.1900000000000001E-002   6.6085746395123351E-002   1.3337510373370737E-005   4.2777943402122996E-006
 abs          18           5   6.8082958666415311E-002   3.0514663171172045E-003   1.4507291449024117E-003   2.1499999999999998E-002   4.6569838384814821E-002   9.6713099137094510E-006   3.4489716867961668E-006
 abs          18           6   7.3526142041831263E-002   2.4465483198565017E-003   1.1506987146556492E-003   4.0700000000000000E-002   3.2817210449904370E-002   6.1510256057645816E-006   2.7805663211379946E-006
 abs          18           7   7.8132241362044649E-002   2.0435431587500358E-003   9.5067670910148989E-004   5.5000000000000000E-002   2.3125897341840108E-002   4.0794628256783478E-006   2.2645573788498862E-006
 abs          18           8  0.10120088453449921        1.7400604389910194E-003   8.0065602163809460E-004   8.4900000000000003E-002   1.6296544420852384E-002   2.4899675946880333E-006   1.8501460521418196E-006
 abs          18           9  0.21098772911889768        1.5359512774173586E-003   7.0063406253336033E-004  0.19950000000000001        1.1483980756946621E-002   2.2591547963764679E-006   1.4892071546864067E-006
 abs          18          10  0.29309627359741597        1.3317384394248399E-003   6.0061256700140095E-004  0.28499999999999998        8.0926244619791785E-003   2.4486794000857225E-006   1.2004560367220767E-006
 abs          18          11  0.35690628645669337        1.0262539954562268E-003   4.5058378870581616E-004  0.35120000000000001        5.7027760729230379E-003   2.5371855579461591E-006   9.7319821239829811E-007
 abs          18          12  0.45992683254681938        8.2356344136761588E-004   3.5057080324824393E-004  0.45590000000000003        4.0186783769217234E-003   7.3574307017828392E-006   7.9673919586454071E-007
 abs          18          13  0.64613346211334499        8.1959640885805735E-004   3.5055295096347047E-004  0.64329999999999998        2.8319147886268687E-003   9.0298194565580956E-007   6.4434277249447757E-007
 CDOM          19           1   5.7442054970519810E-004   100.00000000000000        2.0137527074704766     
 CDOM          19           2   5.7442054970519810E-004   100.00000000000000        1.4190675485932573     
 CDOM          19           3   5.7442054970519810E-004   100.00000000000000        1.0000000000000000     
 CDOM          19           4   5.7442054970519810E-004   100.00000000000000       0.70468808971871344     
 CDOM          19           5   5.7442054970519810E-004   100.00000000000000       0.49658530379140947     
 CDOM          19           6   5.7442054970519810E-004   100.00000000000000       0.34993774911115533     
 CDOM          19           7   5.7442054970519810E-004   100.00000000000000       0.24659696394160643     
 CDOM          19           8   5.7442054970519810E-004   100.00000000000000       0.17377394345044514     
 CDOM          19           9   5.7442054970519810E-004   100.00000000000000       0.12245642825298191     
 CDOM          19          10   5.7442054970519810E-004   100.00000000000000        8.6293586499370495E-002
 CDOM          19          11   5.7442054970519810E-004   100.00000000000000        6.0810062625217952E-002
 CDOM          19          12   5.7442054970519810E-004   100.00000000000000        4.2852126867040187E-002
 CDOM          19          13   5.7442054970519810E-004   100.00000000000000        3.0197383422318501E-002
 abs          19           1  0.12198858477955406        7.7591492692720958E-003   3.8008107508209375E-003   6.3000000000000000E-003  0.11567409371955222        6.3005455625951914E-006   8.1905144392408565E-006
 abs          19           2   8.6628788283428043E-002   5.9498682451782497E-003   2.9007629974358235E-003   5.1000000000000004E-003   8.1514156133174684E-002   8.0208526504334951E-006   6.6112976029166388E-006
 abs          19           3   6.5755817055851637E-002   4.6348801559488763E-003   2.2506826071080855E-003   8.3000000000000001E-003   5.7442054970519810E-002   8.5158734687807560E-006   5.2462118630431633E-006
 abs          19           4   5.2390199073595059E-002   3.7376951765914646E-003   1.8006976584723524E-003   1.1900000000000001E-002   4.0478731986692933E-002   7.1844649731097275E-006   4.2826219290148270E-006
 abs          19           5   5.0033542576204001E-002   3.0328975381442918E-003   1.4506703579640064E-003   2.1499999999999998E-002   2.8524880317938421E-002   5.2093943353167064E-006   3.4528639302682043E-006
 abs          19           6   6.0807239845404530E-002   2.4275275962363980E-003   1.1506392474594763E-003   4.0700000000000000E-002   2.0101143420702954E-002   3.3127204477127772E-006   2.7837042538596374E-006
 abs          19           7   6.9169500462617911E-002   2.0236824986175281E-003   9.5061535046948430E-004   5.5000000000000000E-002   1.4165036358297049E-002   2.1969913371953628E-006   2.2671129836722240E-006
 abs          19           8   9.4885125678913412E-002   1.7200750669850145E-003   8.0059484023351358E-004   8.4900000000000003E-002   9.9819324121244706E-003   1.3410328046313425E-006   1.8522339842989127E-006
 abs          19           9  0.20653685654352691        1.5161304938417137E-003   7.0057364626900068E-004  0.19950000000000001        7.0341488832013016E-003   1.2167725665625658E-006   1.4908877590382865E-006
 abs          19          10  0.28995940162046124        1.3122537851786267E-003   6.0055337108353411E-004  0.28499999999999998        4.9568809393001458E-003   1.3188703822672570E-006   1.2018107788297859E-006
 abs          19          11  0.35469539597233585        1.0070737855326672E-003   4.5052582786954664E-004  0.35120000000000001        3.4930549600785217E-003   1.3667157684426808E-006   9.7429648885087308E-007
 abs          19          12  0.45836627460043255        8.0463554058958953E-004   3.5051348265503909E-004  0.45590000000000003        2.4615142271002112E-003   3.9627349980353292E-006   7.9763833427901141E-007
 abs          19          13  0.64503573127907177        8.0138608084393004E-004   3.5049784664647912E-004  0.64329999999999998        1.7345997585106829E-003   4.8645063310281041E-007   6.4506992805785833E-007
 CDOM          20           1   2.1106497152584137E-004   100.00000000000000        2.0137527074704766     
 CDOM          20           2   2.1106497152584137E-004   100.00000000000000        1.4190675485932573     
 CDOM          20           3   2.1106497152584137E-004   100.00000000000000        1.0000000000000000     
 CDOM          20           4   2.1106497152584137E-004   100.00000000000000       0.70468808971871344     
 CDOM          20           5   2.1106497152584137E-004   100.00000000000000       0.49658530379140947     
 CDOM          20           6   2.1106497152584137E-004   100.00000000000000       0.34993774911115533     
 CDOM          20           7   2.1106497152584137E-004   100.00000000000000       0.24659696394160643     
 CDOM          20           8   2.1106497152584137E-004   100.00000000000000       0.17377394345044514     
 CDOM          20           9   2.1106497152584137E-004   100.00000000000000       0.12245642825298191     
 CDOM          20          10   2.1106497152584137E-004   100.00000000000000        8.6293586499370495E-002
 CDOM          20          11   2.1106497152584137E-004   100.00000000000000        6.0810062625217952E-002
 CDOM          20          12   2.1106497152584137E-004   100.00000000000000        4.2852126867040187E-002
 CDOM          20          13   2.1106497152584137E-004   100.00000000000000        3.0197383422318501E-002
 abs          20           1   4.8812366211923287E-002   7.7398997461528571E-003   3.8007496758765739E-003   6.3000000000000000E-003   4.2503265786234215E-002   9.0060991143347944E-007   8.1998157776384365E-006
 abs          20           2   3.5059310516534568E-002   5.9316818771601530E-003   2.9007055683764769E-003   5.1000000000000004E-003   2.9951545173708138E-002   1.1465372804287120E-006   6.6188055460022663E-006
 abs          20           3   2.9412966637138851E-002   4.6169055471933359E-003   2.2506257278023718E-003   8.3000000000000001E-003   2.1106497152584138E-002   1.2173149716515165E-006   5.2521695830625277E-006
 abs          20           4   2.6778811623493642E-002   3.7196050093233979E-003   1.8006403064667327E-003   1.1900000000000001E-002   1.4873497159107981E-002   1.0269790117295332E-006   4.2874853739285948E-006
 abs          20           5   3.1985377730473774E-002   3.0143250718313260E-003   1.4506115497241983E-003   2.1499999999999998E-002   1.0481176300488513E-002   7.4464490253498672E-007   3.4567850827299293E-006
 abs          20           6   4.8089220479514840E-002   2.4085038949824378E-003   1.1505797628457003E-003   4.0700000000000000E-002   7.3859601051963026E-003   4.7350882548266318E-007   2.7868654930535863E-006
 abs          20           7   6.0207381832653277E-002   2.0038195084379228E-003   9.5055397794279785E-004   5.5000000000000000E-002   5.2047981172694095E-003   3.1402781404711719E-007   2.2696875698234496E-006
 abs          20           8   8.8569805263718548E-002   1.7000879357366584E-003   8.0053364805634456E-004   8.4900000000000003E-002   3.6677592426301374E-003   1.9168366419749646E-007   1.8543374242241171E-006
 abs          20           9  0.20208629275939302        1.4963081829824560E-003   7.0051322048677634E-004  0.19950000000000001        2.5846262542371864E-003   1.7392431002342997E-007   1.4925808457988918E-006
 abs          20          10  0.28682274703223659        1.2927678405590486E-003   6.0049416697123363E-004  0.28499999999999998        1.8213553377352365E-003   1.8851891828173133E-007   1.2031755830587119E-006
 abs          20          11  0.35248465818174446        9.8789266213273447E-004   4.5046786094441420E-004  0.35120000000000001        1.2834874136476257E-003   1.9536517425680710E-007   9.7540292256875512E-007
 abs          20          12  0.45680582326945735        7.8570648374694512E-004   3.5045615459552499E-004  0.45590000000000003        9.0445829370135796E-004   5.6643160503725587E-007   7.9854415089420063E-007
 abs          20          13  0.64393807632693845        7.8317464102073680E-004   3.5044273512077352E-004  0.64329999999999998        6.3736098721865688E-004   6.9537235351408322E-008   6.4580248444799449E-007
 CDOM          21           1   1.2036329785967161E-004   100.00000000000000        2.0137527074704766     
 CDOM          21           2   1.2036329785967161E-004   100.00000000000000        1.4190675485932573     
 CDOM          21           3   1.2036329785967161E-004   100.00000000000000        1.0000000000000000     
 CDOM          21           4   1.2036329785967161E-004   100.00000000000000       0.70468808971871344     
 CDOM          21           5   1.2036329785967161E-004   100.00000000000000       0.49658530379140947     
 CDOM          21           6   1.2036329785967161E-004   100.00000000000000       0.34993774911115533     
 CDOM          21           7   1.2036329785967161E-004   100.00000000000000       0.24659696394160643     
 CDOM          21           8   1.2036329785967161E-004   100.00000000000000       0.17377394345044514     
 CDOM          21           9   1.2036329785967161E-004   100.00000000000000       0.12245642825298191     
 CDOM          21          10   1.2036329785967161E-004   100.00000000000000        8.6293586499370495E-002
 CDOM          21          11   1.2036329785967161E-004   100.00000000000000        6.0810062625217952E-002
 CDOM          21          12   1.2036329785967161E-004   100.00000000000000        4.2852126867040187E-002
 CDOM          21          13   1.2036329785967161E-004   100.00000000000000        3.0197383422318501E-002
 abs          21           1   3.0546421827227443E-002   7.7371678192973518E-003   3.8007420772561574E-003   6.3000000000000000E-003   2.4238191694498912E-002   8.1043010893888778E-011   8.2300516855190077E-006
 abs          21           2   2.2187008318261172E-002   5.9290991250816613E-003   2.9006984256520502E-003   5.1000000000000004E-003   1.7080365003432425E-002   1.0317409834518589E-010   6.6432116546509638E-006
 abs          21           3   2.0341601431884727E-002   4.6143065450945315E-003   2.2506183978032619E-003   8.3000000000000001E-003   1.2036329785967161E-002   1.0954383751170389E-010   5.2715363737311292E-006
 abs          21           4   2.0386161631511926E-002   3.7169961062492808E-003   1.8006329483268213E-003   1.1900000000000001E-002   8.4818582440976502E-003   9.2415312613193367E-011   4.3032949989641876E-006
 abs          21           5   2.7480534081899440E-002   3.0116169946470899E-003   1.4506038473157512E-003   2.1499999999999998E-002   5.9770644832980932E-003   6.7008432023067466E-011   3.4695315929148763E-006
 abs          21           6   4.4914763337219173E-002   2.4056999706921073E-003   1.1505718361896715E-003   4.0700000000000000E-002   4.2119661528609020E-003   4.2608941469325773E-011   2.7971417493267218E-006
 abs          21           7   5.7970400467267362E-002   2.0008587763285877E-003   9.5054564528835846E-004   5.5000000000000000E-002   2.9681223822194277E-003   2.8257861544330200E-011   2.2780567900766667E-006
 abs          21           8   8.6993461683913420E-002   1.6970933950016176E-003   8.0052527456259473E-004   8.4900000000000003E-002   2.0916004915775659E-003   1.7248793195783634E-011   1.8611750870520110E-006
 abs          21           9  0.20097542405508681        1.4933280093394942E-003   7.0050490382804270E-004  0.19950000000000001        1.4739259548645167E-003   1.5650781984073605E-011   1.4980845715144077E-006
 abs          21          10  0.28603986569464346        1.2898315770450814E-003   6.0048598813830447E-004  0.28499999999999998        1.0386580655203069E-003   1.6964124248144989E-011   1.2076121590843251E-006
 abs          21          11  0.35193290898525514        9.8499036551357323E-004   4.5045979719009985E-004  0.35120000000000001        7.3192996806243922E-004   1.7580460067562593E-011   9.7899961226435256E-007
 abs          21          12  0.45641658387066647        7.8283871419575148E-004   3.5044815676734737E-004  0.45590000000000003        5.1578233100179943E-004   5.0971075562920679E-011   8.0148869355707984E-007
 abs          21          13  0.64366411385561106        7.8041809994881686E-004   3.5043506126926848E-004  0.64329999999999998        3.6346566554432315E-004   6.2575496184407238E-012   6.4818380921898070E-007
 CDOM          22           1   8.5967850948962362E-005   100.00000000000000        2.0137527074704766     
 CDOM          22           2   8.5967850948962362E-005   100.00000000000000        1.4190675485932573     
 CDOM          22           3   8.5967850948962362E-005   100.00000000000000        1.0000000000000000     
 CDOM          22           4   8.5967850948962362E-005   100.00000000000000       0.70468808971871344     
 CDOM          22           5   8.5967850948962362E-005   100.00000000000000       0.49658530379140947     
 CDOM          22           6   8.5967850948962362E-005   100.00000000000000       0.34993774911115533     
 CDOM          22           7   8.5967850948962362E-005   100.00000000000000       0.24659696394160643     
 CDOM          22           8   8.5967850948962362E-005   100.00000000000000       0.17377394345044514     
 CDOM          22           9   8.5967850948962362E-005   100.00000000000000       0.12245642825298191     
 CDOM          22          10   8.5967850948962362E-005   100.00000000000000        8.6293586499370495E-002
 CDOM          22          11   8.5967850948962362E-005   100.00000000000000        6.0810062625217952E-002
 CDOM          22          12   8.5967850948962362E-005   100.00000000000000        4.2852126867040187E-002
 CDOM          22          13   8.5967850948962362E-005   100.00000000000000        3.0197383422318501E-002
 abs          22           1   2.3620062565587317E-002   7.7377217532077379E-003   3.8007450746847956E-003   6.3000000000000000E-003   1.7311799260389133E-002   7.2926217619151975E-015   8.2633051908920321E-006
 abs          22           2   1.7306088803943180E-002   5.9296204736073747E-003   2.9007012467621601E-003   5.1000000000000004E-003   1.2199418750397454E-002   9.2840990015317309E-015   6.6700535364389925E-006
 abs          22           3   1.6902077930910715E-002   4.6147681276757250E-003   2.2506208955706711E-003   8.3000000000000001E-003   8.5967850948962359E-003   9.8572932419519021E-015   5.2928360046236544E-006
 abs          22           4   1.7962372748705806E-002   3.7174685542088570E-003   1.8006355048782153E-003   1.1900000000000001E-002   6.0580520662447367E-003   8.3159703773173310E-015   4.3206824527540036E-006
 abs          22           5   2.5772520688212067E-002   3.0120677011435575E-003   1.4506062862631303E-003   2.1499999999999998E-002   4.2690371379785078E-003   6.0297307723985498E-015   3.4835502275329154E-006
 abs          22           6   4.3711148069298447E-002   2.4061267627716212E-003   1.1505741457865357E-003   4.0700000000000000E-002   3.0083396257003184E-003   3.8341335016510977E-015   2.8084435942901025E-006
 abs          22           7   5.7122228365335835E-002   2.0012659950133984E-003   9.5054784903296019E-004   5.5000000000000000E-002   2.1199411040598668E-003   2.5427600828157624E-015   2.2872612734266506E-006
 abs          22           8   8.6395765942098510E-002   1.6974853978674004E-003   8.0052739600239937E-004   8.4900000000000003E-002   1.4938972469361281E-003   1.5521205546122632E-015   1.8686951608161065E-006
 abs          22           9  0.20055423573475978        1.4937048007210121E-003   7.0050694297183749E-004  0.19950000000000001        1.0527315971794651E-003   1.4083264712408784E-015   1.5041375788649874E-006
 abs          22          10  0.28574305990971771        1.2901942462276896E-003   6.0048795087202936E-004  0.28499999999999998        7.4184741820292727E-004   1.5265075762360256E-015   1.2124915133040923E-006
 abs          22          11  0.35172375399525579        9.8533347846792253E-004   4.5046165411844960E-004  0.35120000000000001        5.2277103999618030E-004   1.5819742841181302E-015   9.8295525800153574E-007
 abs          22          12  0.45626919525264664        7.8317313724120187E-004   3.5044996667241406E-004  0.45590000000000003        3.6839052553517361E-004   4.5866046590885098E-015   8.0472710682543304E-007
 abs          22          13  0.64356025121850480        7.8074275336055500E-004   3.5043681829562199E-004  0.64329999999999998        2.5960041570985437E-004   5.6308578672043012E-016   6.5080279444607174E-007
 CDOM          23           1   5.1585178809848162E-005   100.00000000000000        2.0137527074704766     
 CDOM          23           2   5.1585178809848162E-005   100.00000000000000        1.4190675485932573     
 CDOM          23           3   5.1585178809848162E-005   100.00000000000000        1.0000000000000000     
 CDOM          23           4   5.1585178809848162E-005   100.00000000000000       0.70468808971871344     
 CDOM          23           5   5.1585178809848162E-005   100.00000000000000       0.49658530379140947     
 CDOM          23           6   5.1585178809848162E-005   100.00000000000000       0.34993774911115533     
 CDOM          23           7   5.1585178809848162E-005   100.00000000000000       0.24659696394160643     
 CDOM          23           8   5.1585178809848162E-005   100.00000000000000       0.17377394345044514     
 CDOM          23           9   5.1585178809848162E-005   100.00000000000000       0.12245642825298191     
 CDOM          23          10   5.1585178809848162E-005   100.00000000000000        8.6293586499370495E-002
 CDOM          23          11   5.1585178809848162E-005   100.00000000000000        6.0810062625217952E-002
 CDOM          23          12   5.1585178809848162E-005   100.00000000000000        4.2852126867040187E-002
 CDOM          23          13   5.1585178809848162E-005   100.00000000000000        3.0197383422318501E-002
 abs          23           1   1.6696275959463592E-002   7.7382768349258660E-003   3.8007480776769487E-003   6.3000000000000000E-003   1.0387979349368038E-002   6.5624490078145193E-019   8.2966100955518218E-006
 abs          23           2   1.2426982260650801E-002   5.9301429034596389E-003   2.9007040731077165E-003   5.1000000000000004E-003   7.3202853237436076E-003   8.3545354921086724E-019   6.6969369071937905E-006
 abs          23           3   1.3463832049542752E-002   4.6152306957715555E-003   2.2506233980641240E-003   8.3000000000000001E-003   5.1585178809848160E-003   8.8703431738191914E-019   5.3141685579351541E-006
 abs          23           4   1.5539484208113005E-002   3.7179420062602975E-003   1.8006380662538681E-003   1.1900000000000001E-002   3.6351461113310157E-003   7.4833399506307836E-019   4.3380967819878811E-006
 abs          23           5   2.4065141759572736E-002   3.0125193852828126E-003   1.4506087298743798E-003   2.1499999999999998E-002   2.5616441690422629E-003   5.4260062219447723E-019   3.4975905304777291E-006
 abs          23           6   4.2507979898929765E-002   2.4065545022075793E-003   1.1505764598569430E-003   4.0700000000000000E-002   1.8051601360214730E-003   3.4502374879890039E-019   2.8197629082921228E-006
 abs          23           7   5.6274371327873315E-002   2.0016741433278432E-003   9.5055005711540365E-004   5.5000000000000000E-002   1.2720748478893447E-003   2.2881633400396017E-019   2.2964799839648348E-006
 abs          23           8   8.5798292221396580E-002   1.6978783086436041E-003   8.0052952164976193E-004   8.4900000000000003E-002   8.9641599453836552E-004   1.3967133499097449E-019   1.8762268582097585E-006
 abs          23           9  0.20013320387472680        1.4940824739593645E-003   7.0050898618412012E-004  0.19950000000000001        6.3169367478454141E-004   1.2673172567438552E-019   1.5101999422295311E-006
 abs          23          10  0.28544636438738075        1.2905577703239994E-003   6.0048991753745276E-004  0.28499999999999998        4.4514700897131258E-004   1.3736656166274367E-019   1.2173784094453491E-006
 abs          23          11  0.35151467671241388        9.8567741144426312E-004   4.5046351479591343E-004  0.35120000000000001        3.1368979539599329E-004   1.4235804588619307E-019   9.8691701790224280E-007
 abs          23          12  0.45612186143320754        7.8350836305326891E-004   3.5045178024411817E-004  0.45590000000000003        2.2105346268185664E-004   4.1273695177045478E-019   8.0797052564524275E-007
 abs          23          13  0.64345642716817075        7.8106818361340074E-004   3.5043857887334846E-004  0.64329999999999998        1.5577374234298445E-004   5.0670764509146241E-020   6.5342582778692458E-007
 CDOM          24           1   1.7198129273687184E-005   100.00000000000000        2.0137527074704766     
 CDOM          24           2   1.7198129273687184E-005   100.00000000000000        1.4190675485932573     
 CDOM          24           3   1.7198129273687184E-005   100.00000000000000        1.0000000000000000     
 CDOM          24           4   1.7198129273687184E-005   100.00000000000000       0.70468808971871344     
 CDOM          24           5   1.7198129273687184E-005   100.00000000000000       0.49658530379140947     
 CDOM          24           6   1.7198129273687184E-005   100.00000000000000       0.34993774911115533     
 CDOM          24           7   1.7198129273687184E-005   100.00000000000000       0.24659696394160643     
 CDOM          24           8   1.7198129273687184E-005   100.00000000000000       0.17377394345044514     
 CDOM          24           9   1.7198129273687184E-005   100.00000000000000       0.12245642825298191     
 CDOM          24          10   1.7198129273687184E-005   100.00000000000000        8.6293586499370495E-002
 CDOM          24          11   1.7198129273687184E-005   100.00000000000000        6.0810062625217952E-002
 CDOM          24          12   1.7198129273687184E-005   100.00000000000000        4.2852126867040187E-002
 CDOM          24          13   1.7198129273687184E-005   100.00000000000000        3.0197383422318501E-002
 abs          24           1   9.7716082731544498E-003   7.7388389053827883E-003   3.8007511184781208E-003   6.3000000000000000E-003   3.4632779388314829E-003   1.3499423216904734E-023   8.3303343229672916E-006
 abs          24           2   7.5472548736310137E-003   5.9306719109485061E-003   2.9007069350382312E-003   5.1000000000000004E-003   2.4405307148801210E-003   1.7185872264200015E-023   6.7241587508918982E-006
 abs          24           3   1.0025148697065781E-002   4.6156990878189899E-003   2.2506259320651005E-003   8.3000000000000001E-003   1.7198129273687183E-003   1.8246925262196507E-023   5.3357696970640165E-006
 abs          24           4   1.3116287416825962E-002   3.7184214192970840E-003   1.8006406598783972E-003   1.1900000000000001E-002   1.2119316864610105E-003   1.5393761223781103E-023   4.3557303649502178E-006
 abs          24           5   2.2357545632608528E-002   3.0129767563408963E-003   1.4506112042518041E-003   2.1499999999999998E-002   8.5403382500178827E-004   1.1161679775395994E-023   3.5118076067411134E-006
 abs          24           6   4.1304658689432894E-002   2.4069876270890896E-003   1.1505788030625520E-003   4.0700000000000000E-002   6.0182746469567613E-004   7.0973833082331255E-024   2.8312247372176417E-006
 abs          24           7   5.5426406461198598E-002   2.0020874304285206E-003   9.5055229299861833E-004   5.5000000000000000E-002   4.2410064643665243E-004   4.7069143363732961E-024   2.3058147619455218E-006
 abs          24           8   8.5200742527768769E-002   1.6982761663591893E-003   8.0053167406000329E-004   8.4900000000000003E-002   2.9885867438591619E-004   2.8731384580177592E-024   1.8838533828409692E-006
 abs          24           9  0.19971211848698217        1.4944649022898579E-003   7.0051105512138816E-004  0.19950000000000001        2.1060214834887824E-004   2.6069615136818363E-024   1.5163386332982946E-006
 abs          24          10  0.28514963115244424        1.2909258713683356E-003   6.0049190896410264E-004  0.28499999999999998        1.4840882561062809E-004   2.8257276354120969E-024   1.2223268336641549E-006
 abs          24          11  0.35130557286047498        9.8602567470776684E-004   4.5046539890016902E-004  0.35120000000000001        1.0458193181695118E-004   2.9284060073622759E-024   9.9092865802617448E-007
 abs          24          12  0.45597450889653168        7.8384780952529170E-004   3.5045361664953181E-004  0.45590000000000003        7.3697641751180093E-005   8.4902919360894199E-024   8.1125478047197802E-007
 abs          24          13  0.64335258993226863        7.8139771119500716E-004   3.5044036161756498E-004  0.64329999999999998        5.1933850382413188E-005   1.0423335770206328E-024   6.5608188622062656E-007
 CDOM          25           1   5.0000003414726499E-009   100.00000000000000        2.0137527074704766     
 CDOM          25           2   5.0000003414726499E-009   100.00000000000000        1.4190675485932573     
 CDOM          25           3   5.0000003414726499E-009   100.00000000000000        1.0000000000000000     
 CDOM          25           4   5.0000003414726499E-009   100.00000000000000       0.70468808971871344     
 CDOM          25           5   5.0000003414726499E-009   100.00000000000000       0.49658530379140947     
 CDOM          25           6   5.0000003414726499E-009   100.00000000000000       0.34993774911115533     
 CDOM          25           7   5.0000003414726499E-009   100.00000000000000       0.24659696394160643     
 CDOM          25           8   5.0000003414726499E-009   100.00000000000000       0.17377394345044514     
 CDOM          25           9   5.0000003414726499E-009   100.00000000000000       0.12245642825298191     
 CDOM          25          10   5.0000003414726499E-009   100.00000000000000        8.6293586499370495E-002
 CDOM          25          11   5.0000003414726499E-009   100.00000000000000        6.0810062625217952E-002
 CDOM          25          12   5.0000003414726499E-009   100.00000000000000        4.2852126867040187E-002
 CDOM          25          13   5.0000003414726499E-009   100.00000000000000        3.0197383422318501E-002
 abs          25           1   6.3092714430645772E-003   7.7377427773679640E-003   3.8007451884255606E-003   6.3000000000000000E-003   1.0068764224993857E-006   1.4529836745572473E-026   8.2645666420778207E-006
 abs          25           2   5.1073806055893988E-003   5.9296402610522006E-003   2.9007013538122923E-003   5.1000000000000004E-003   7.0953382275390434E-007   1.8497673146241523E-026   6.6710717666445140E-006
 abs          25           3   8.3057936440271117E-003   4.6147856478066362E-003   2.2506209903546339E-003   8.3000000000000001E-003   5.0000003414726504E-007   1.9639716520360161E-026   5.2936439929648780E-006
 abs          25           4   1.1904673686103998E-002   3.7174864865785573E-003   1.8006356018923900E-003   1.1900000000000001E-002   3.5234406892252770E-007   1.6568769930982873E-026   4.3213420350733706E-006
 abs          25           5   2.1503732374684628E-002   3.0120848090347155E-003   1.4506063788168777E-003   2.1499999999999998E-002   2.4829266885273470E-007   1.2013652904797754E-026   3.4840820157779048E-006
 abs          25           6   4.0702983841209302E-002   2.4061429637364895E-003   1.1505742334338143E-003   4.0700000000000000E-002   1.7496888650499474E-007   7.6391279192018329E-027   2.8088723227976904E-006
 abs          25           7   5.5002410908930210E-002   2.0012814539470320E-003   9.5054793266585345E-004   5.5000000000000000E-002   1.2329849039141509E-007   5.0661939983669757E-027   2.2876104398169652E-006
 abs          25           8   8.4901955867407827E-002   1.6975002796663430E-003   8.0052747651299496E-004   8.4900000000000003E-002   8.6886977659127474E-008   3.0924456602076824E-027   1.8689804301692325E-006
 abs          25           9  0.19950156559541427        1.4937191053856537E-003   7.0050702036013638E-004  0.19950000000000001        6.1228218308043060E-008   2.8059513793414312E-027   1.5043671959599169E-006
 abs          25          10  0.28500125582340474        1.2902080149821565E-003   6.0048802536105347E-004  0.28499999999999998        4.3146796196375216E-008   3.0414159605408882E-027   1.2126766085924645E-006
 abs          25          11  0.35120101351034638        9.8534650519269910E-004   4.5046172459309249E-004  0.35120000000000001        3.0405033389106303E-008   3.1519317920520475E-027   9.8310531297919164E-007
 abs          25          12  0.45590082627601897        7.8318583417516237E-004   3.5045003536288762E-004  0.45590000000000003        2.1426064896803028E-008   9.1383575262051341E-027   8.0484995403241505E-007
 abs          25          13  0.64330066600083680        7.8075507928043362E-004   3.5043688497890714E-004  0.64329999999999998        1.5098692742317304E-008   1.1218950961973735E-027   6.5090214403292632E-007
 CDOM          26           1   4.4481194975306719E-009   100.00000000000000        2.0137527074704766     
 CDOM          26           2   4.4481194975306719E-009   100.00000000000000        1.4190675485932573     
 CDOM          26           3   4.4481194975306719E-009   100.00000000000000        1.0000000000000000     
 CDOM          26           4   4.4481194975306719E-009   100.00000000000000       0.70468808971871344     
 CDOM          26           5   4.4481194975306719E-009   100.00000000000000       0.49658530379140947     
 CDOM          26           6   4.4481194975306719E-009   100.00000000000000       0.34993774911115533     
 CDOM          26           7   4.4481194975306719E-009   100.00000000000000       0.24659696394160643     
 CDOM          26           8   4.4481194975306719E-009   100.00000000000000       0.17377394345044514     
 CDOM          26           9   4.4481194975306719E-009   100.00000000000000       0.12245642825298191     
 CDOM          26          10   4.4481194975306719E-009   100.00000000000000        8.6293586499370495E-002
 CDOM          26          11   4.4481194975306719E-009   100.00000000000000        6.0810062625217952E-002
 CDOM          26          12   4.4481194975306719E-009   100.00000000000000        4.2852126867040187E-002
 CDOM          26          13   4.4481194975306719E-009   100.00000000000000        3.0197383422318501E-002
 abs          26           1   6.3090561105129299E-003   7.7360061540800015E-003   3.8007357932935727E-003   6.3000000000000000E-003   8.9574126813046070E-007   1.4933118507636388E-021   8.1603692448000968E-006
 abs          26           2   5.1072181829203301E-003   5.9280057920752952E-003   2.9006925113351273E-003   5.1000000000000004E-003   6.3121820312107219E-007   1.9011083885200574E-021   6.5869647172079208E-006
 abs          26           3   8.3056717151261603E-003   4.6133384617333345E-003   2.2506131610779772E-003   8.3000000000000001E-003   4.4481194975306719E-007   2.0184825156021880E-021   5.2269031764079052E-006
 abs          26           4   1.1904580313418999E-002   3.7160052490682366E-003   1.8006275883974592E-003   1.1900000000000001E-002   3.1345368315554528E-007   1.7028643145665378E-021   4.2668597358431882E-006
 abs          26           5   2.1503661042739219E-002   3.0106716743984324E-003   1.4505987337584954E-003   2.1499999999999998E-002   2.2088707719817604E-007   1.2347096920522666E-021   3.4401556620235704E-006
 abs          26           6   4.0702929115320773E-002   2.4048047422616484E-003   1.1505669936556354E-003   4.0700000000000000E-002   1.5565649247433267E-007   7.8511551444097265E-022   2.7734588282980721E-006
 abs          26           7   5.5002368458149001E-002   2.0000045250588246E-003   9.5054102448056824E-004   5.5000000000000000E-002   1.0968927633405277E-007   5.2068083547699597E-022   2.2587688726619876E-006
 abs          26           8   8.4901922713562353E-002   1.6962710227899620E-003   8.0052082623329368E-004   8.4900000000000003E-002   7.7296726602471738E-008   3.1782777969875730E-022   1.8454168357521787E-006
 abs          26           9  0.19950153987062816        1.4925375205210990E-003   7.0050062798601915E-004  0.19950000000000001        5.4470082611005467E-008   2.8838317462265778E-022   1.4854005455404097E-006
 abs          26          10  0.28500123577193182        1.2890706969857265E-003   6.0048187247069274E-004  0.28499999999999998        3.8384418461969945E-008   3.1258317464312556E-022   1.1973875133709946E-006
 abs          26          11  0.35120099775963243        9.8427047978290284E-004   4.5045590329562547E-004  0.35120000000000001        2.7049042520929315E-008   3.2394149915719151E-022   9.7071058990432526E-007
 abs          26          12  0.45590081376376396        7.8213704991498135E-004   3.5044436144004006E-004  0.45590000000000003        1.9061138102793939E-008   9.3919965030271634E-022   7.9470262580079361E-007
 abs          26          13  0.64330065612790466        7.7973694131356958E-004   3.5043137685250640E-004  0.64329999999999998        1.3432156997522441E-008   1.1530337689276919E-022   6.4269574771138013E-007
 CDOM          27           1   4.0992683915006154E-009   100.00000000000000        2.0137527074704766     
 CDOM          27           2   4.0992683915006154E-009   100.00000000000000        1.4190675485932573     
 CDOM          27           3   4.0992683915006154E-009   100.00000000000000        1.0000000000000000     
 CDOM          27           4   4.0992683915006154E-009   100.00000000000000       0.70468808971871344     
 CDOM          27           5   4.0992683915006154E-009   100.00000000000000       0.49658530379140947     
 CDOM          27           6   4.0992683915006154E-009   100.00000000000000       0.34993774911115533     
 CDOM          27           7   4.0992683915006154E-009   100.00000000000000       0.24659696394160643     
 CDOM          27           8   4.0992683915006154E-009   100.00000000000000       0.17377394345044514     
 CDOM          27           9   4.0992683915006154E-009   100.00000000000000       0.12245642825298191     
 CDOM          27          10   4.0992683915006154E-009   100.00000000000000        8.6293586499370495E-002
 CDOM          27          11   4.0992683915006154E-009   100.00000000000000        6.0810062625217952E-002
 CDOM          27          12   4.0992683915006154E-009   100.00000000000000        4.2852126867040187E-002
 CDOM          27          13   4.0992683915006154E-009   100.00000000000000        3.0197383422318501E-002
 abs          27           1   6.3083471872832026E-003   7.7253616000098725E-003   3.8006782062560496E-003   6.3000000000000000E-003   8.2549128220325107E-007   5.1851504143364879E-016   7.5216960004805474E-006
 abs          27           2   5.1066531482287245E-003   5.9179873882445914E-003   2.9006383117703991E-003   5.1000000000000004E-003   5.8171387473526040E-007   6.6011214893878181E-016   6.0714343533290685E-006
 abs          27           3   8.3052277451931000E-003   4.6044680000084121E-003   2.2505651718800414E-003   8.3000000000000001E-003   4.0992683915006156E-007   7.0086736717140193E-016   4.8178183532489775E-006
 abs          27           4   1.1904221783503225E-002   3.7069260705968159E-003   1.8005784700419248E-003   1.1900000000000001E-002   2.8887056120508721E-007   5.9127687239060539E-016   3.9329129414277376E-006
 abs          27           5   2.1503374474703407E-002   3.0020099294200773E-003   1.4505518737181584E-003   2.1499999999999998E-002   2.0356364395158557E-007   4.2872193561285957E-016   3.1709110590261132E-006
 abs          27           6   4.0702699842287589E-002   2.3966021741256569E-003   1.1505226177620158E-003   4.0700000000000000E-002   1.4344887539242316E-007   2.7261164725397751E-016   2.5563934119280289E-006
 abs          27           7   5.5002183072502521E-002   1.9921776470666307E-003   9.5049868107062604E-004   5.5000000000000000E-002   1.0108671397258443E-007   1.8079334523662991E-016   2.0819857883683084E-006
 abs          27           8   8.4901772219450652E-002   1.6887363482428928E-003   8.0048006364398961E-004   8.4900000000000003E-002   7.1234603365282513E-008   1.1035771548654918E-016   1.7009848471674964E-006
 abs          27           9  0.19950141934349441        1.4852950494191274E-003   7.0046144621735299E-004  0.19950000000000001        5.0198176567351165E-008   1.0013381576110074E-016   1.3691453177345308E-006
 abs          27          10  0.28500113904775143        1.2820995576541846E-003   6.0044415860690463E-004  0.28499999999999998        3.5374057152609375E-008   1.0853665807892639E-016   1.1036736941881588E-006
 abs          27          11  0.35120091966537104        9.7767503059504853E-004   4.5042022191551481E-004  0.35120000000000001        2.4927676760472889E-008   1.1248055104610268E-016   8.9473769417481016E-007
 abs          27          12  0.45590075007127262        7.7570857412431033E-004   3.5040958338600816E-004  0.45590000000000003        1.7566236917463213E-008   3.2611349420561322E-016   7.3250503534091597E-007
 abs          27          13  0.64330060477372975        7.7349631059468813E-004   3.5039761504031307E-004  0.64329999999999998        1.2378717936913491E-008   4.0036202228235618E-017   5.9239501180255286E-007
 CDOM          28           1   1.4953218745470873E-008   100.00000000000000        2.0137527074704766     
 CDOM          28           2   1.4953218745470873E-008   100.00000000000000        1.4190675485932573     
 CDOM          28           3   1.4953218745470873E-008   100.00000000000000        1.0000000000000000     
 CDOM          28           4   1.4953218745470873E-008   100.00000000000000       0.70468808971871344     
 CDOM          28           5   1.4953218745470873E-008   100.00000000000000       0.49658530379140947     
 CDOM          28           6   1.4953218745470873E-008   100.00000000000000       0.34993774911115533     
 CDOM          28           7   1.4953218745470873E-008   100.00000000000000       0.24659696394160643     
 CDOM          28           8   1.4953218745470873E-008   100.00000000000000       0.17377394345044514     
 CDOM          28           9   1.4953218745470873E-008   100.00000000000000       0.12245642825298191     
 CDOM          28          10   1.4953218745470873E-008   100.00000000000000        8.6293586499370495E-002
 CDOM          28          11   1.4953218745470873E-008   100.00000000000000        6.0810062625217952E-002
 CDOM          28          12   1.4953218745470873E-008   100.00000000000000        4.2852126867040187E-002
 CDOM          28          13   1.4953218745470873E-008   100.00000000000000        3.0197383422318501E-002
 abs          28           1   6.3091341838082292E-003   7.7020453521546677E-003   3.8005520627710119E-003   6.3000000000000000E-003   3.0112084734090252E-006   3.2407304162732984E-010   6.1226512617778922E-006
 abs          28           2   5.1070645153891989E-003   5.8960426885276227E-003   2.9005195884871482E-003   5.1000000000000004E-003   2.1219627468714092E-006   4.1257154533118493E-010   4.9421400707815001E-006
 abs          28           3   8.3054174581120126E-003   4.5850379094795491E-003   2.2504600526682540E-003   8.3000000000000001E-003   1.4953218745470872E-006   4.3804364638791169E-010   3.9216981938185190E-006
 abs          28           4   1.1904255491345304E-002   3.6870387830245438E-003   1.8004708773849843E-003   1.1900000000000001E-002   1.0537355152891924E-006   3.6954934605120419E-010   3.2013862806681791E-006
 abs          28           5   2.1503323940508277E-002   2.9830370787508062E-003   1.4504492280956766E-003   2.1499999999999998E-002   7.4255486733790523E-007   2.6795215294481406E-010   2.5811176887887193E-006
 abs          28           6   4.0702604341036293E-002   2.3786351992799788E-003   1.1504254138218395E-003   4.0700000000000000E-002   5.2326957097568103E-007   1.7038287927841775E-010   2.0809010824343163E-006
 abs          28           7   5.5002063588692945E-002   1.9750336897388920E-003   9.5040592949604695E-004   5.5000000000000000E-002   3.6874183437878338E-007   1.1299623851762843E-010   1.6947338623287173E-006
 abs          28           8   8.4901644516519076E-002   1.6722324839288602E-003   8.0039077492149156E-004   8.4900000000000003E-002   2.5984797886775917E-007   6.8973814965685906E-011   1.3845995663889873E-006
 abs          28           9  0.19950129765695868        1.4694312607840820E-003   7.0037562031179590E-004  0.19950000000000001        1.8311177584558980E-007   6.2583855144736614E-011   1.1144825989576096E-006
 abs          28          10  0.28500102749354811        1.2668301140061865E-003   6.0036154814361469E-004  0.28499999999999998        1.2903668752562992E-007   6.7835650079601650E-011   8.9838902501250776E-007
 abs          28          11  0.35120081931629626        9.6322853581516427E-004   4.5034206363031657E-004  0.35120000000000001        9.0930616836066669E-008   7.0300591860637746E-011   7.2831537885201060E-007
 abs          28          12  0.45590066053973910        7.6162782740656803E-004   3.5033340384132023E-004  0.45590000000000003        6.4077722675152132E-008   2.0382165132706843E-010   5.9625819477444824E-007
 abs          28          13  0.64330052738863930        7.5982700439723337E-004   3.5032366148879613E-004  0.64329999999999998        4.5154807985478435E-008   2.5022714472153799E-011   4.8220880852564439E-007
 CDOM          29           1   5.7617191474760124E-008   100.00000000000000        2.0137527074704766     
 CDOM          29           2   5.7617191474760124E-008   100.00000000000000        1.4190675485932573     
 CDOM          29           3   5.7617191474760124E-008   100.00000000000000        1.0000000000000000     
 CDOM          29           4   5.7617191474760124E-008   100.00000000000000       0.70468808971871344     
 CDOM          29           5   5.7617191474760124E-008   100.00000000000000       0.49658530379140947     
 CDOM          29           6   5.7617191474760124E-008   100.00000000000000       0.34993774911115533     
 CDOM          29           7   5.7617191474760124E-008   100.00000000000000       0.24659696394160643     
 CDOM          29           8   5.7617191474760124E-008   100.00000000000000       0.17377394345044514     
 CDOM          29           9   5.7617191474760124E-008   100.00000000000000       0.12245642825298191     
 CDOM          29          10   5.7617191474760124E-008   100.00000000000000        8.6293586499370495E-002
 CDOM          29          11   5.7617191474760124E-008   100.00000000000000        6.0810062625217952E-002
 CDOM          29          12   5.7617191474760124E-008   100.00000000000000        4.2852126867040187E-002
 CDOM          29          13   5.7617191474760124E-008   100.00000000000000        3.0197383422318501E-002
 abs          29           1   6.3160714015242621E-003   7.6744586086834573E-003   3.8004028087983521E-003   6.3000000000000000E-003   1.1602677532914306E-005   1.5393393342110672E-009   4.4671846520136889E-006
 abs          29           2   5.1117840931068888E-003   5.8700787102226211E-003   2.9003791141478785E-003   5.1000000000000004E-003   8.1762686662916178E-006   1.9597051476897029E-009   3.6058647354489577E-006
 abs          29           3   8.3086251338046185E-003   4.5620493916491258E-003   2.2503356757042361E-003   8.3000000000000001E-003   5.7617191474760125E-006   2.0806970292875219E-009   2.8613339601133432E-006
 abs          29           4   1.1906397753034826E-002   3.6635092897323116E-003   1.8003435737094110E-003   1.1900000000000001E-002   4.0602148595306055E-006   1.7553507118397194E-009   2.3357828245823213E-006
 abs          29           5   2.1504745682721958E-002   2.9605896969421269E-003   1.4503277783837812E-003   2.1499999999999998E-002   2.8611850532101566E-006   1.2727664314294125E-009   1.8832249023194963E-006
 abs          29           6   4.0703535311180129E-002   2.3573781222168818E-003   1.1503104032614946E-003   4.0700000000000000E-002   2.0162430294784008E-006   8.0931467373028780E-010   1.5182588359785086E-006
 abs          29           7   5.5002657864211095E-002   1.9547506041552101E-003   9.5029618763270234E-004   5.5000000000000000E-002   1.4208224488518057E-006   5.3672947831342384E-010   1.2365050327632662E-006
 abs          29           8   8.4902011790352935E-002   1.6527068283149063E-003   8.0028513056257277E-004   8.4900000000000003E-002   1.0012366573108437E-006   3.2762400067010820E-010   1.0102260716318539E-006
 abs          29           9  0.19950151900121507        1.4506629701349664E-003   7.0027407332552759E-004  0.19950000000000001        7.0555954739672839E-007   2.9727184164132080E-010   8.1314439580772045E-007
 abs          29          10  0.28500115300068252        1.2487650495724236E-003   6.0026380574574819E-004  0.28499999999999998        4.9719940963780052E-007   3.2221774420036443E-010   6.5547905514841389E-007
 abs          29          11  0.35120088209502093        9.4613720542517090E-004   4.5024958922630859E-004  0.35120000000000001        3.5037050218693371E-007   3.3392615975087012E-010   5.3139059259247803E-007
 abs          29          12  0.45590068290961905        7.4496924148899379E-004   3.5024327074800987E-004  0.45590000000000003        2.4690191987989671E-007   9.6814805537700300E-010   4.3503955107845724E-007
 abs          29          13  0.64330052593498743        7.4365515832550242E-004   3.5023616203288578E-004  0.64329999999999998        1.7398884226804722E-007   1.1885730587863412E-010   3.5182728795271206E-007
 CDOM          30           1   1.6536090154704346E-008   100.00000000000000        2.0137527074704766     
 CDOM          30           2   1.6536090154704346E-008   100.00000000000000        1.4190675485932573     
 CDOM          30           3   1.6536090154704346E-008   100.00000000000000        1.0000000000000000     
 CDOM          30           4   1.6536090154704346E-008   100.00000000000000       0.70468808971871344     
 CDOM          30           5   1.6536090154704346E-008   100.00000000000000       0.49658530379140947     
 CDOM          30           6   1.6536090154704346E-008   100.00000000000000       0.34993774911115533     
 CDOM          30           7   1.6536090154704346E-008   100.00000000000000       0.24659696394160643     
 CDOM          30           8   1.6536090154704346E-008   100.00000000000000       0.17377394345044514     
 CDOM          30           9   1.6536090154704346E-008   100.00000000000000       0.12245642825298191     
 CDOM          30          10   1.6536090154704346E-008   100.00000000000000        8.6293586499370495E-002
 CDOM          30          11   1.6536090154704346E-008   100.00000000000000        6.0810062625217952E-002
 CDOM          30          12   1.6536090154704346E-008   100.00000000000000        4.2852126867040187E-002
 CDOM          30          13   1.6536090154704346E-008   100.00000000000000        3.0197383422318501E-002
 abs          30           1   6.3053191588530021E-003   7.6331478004711302E-003   3.8001793262337855E-003   6.3000000000000000E-003   3.3299596320011769E-006   4.2221989518017215E-010   1.9887770011053072E-006
 abs          30           2   5.1039524404100749E-003   5.8311979352578050E-003   2.9001687776276080E-003   5.1000000000000004E-003   2.3465828919153394E-006   5.3752053472060323E-010   1.6053199976242185E-006
 abs          30           3   8.3029280368865435E-003   4.5276233182129271E-003   2.2501494389959801E-003   8.3000000000000001E-003   1.6536090154704346E-006   5.7070696634782113E-010   1.2738571641066675E-006
 abs          30           4   1.1902205643446410E-002   3.6282732546132411E-003   1.8001529551399868E-003   1.1900000000000001E-002   1.1652785782535031E-006   4.8146888544055369E-010   1.0398833992707490E-006
 abs          30           5   2.1501659913028520E-002   2.9269734375959419E-003   1.4501459230397830E-003   2.1499999999999998E-002   8.2115793529959931E-007   3.4910256453778395E-010   8.3840599066204139E-007
 abs          30           6   4.0701254806410347E-002   2.3255436326626681E-003   1.1501381876571216E-003   4.0700000000000000E-002   5.7866021678363747E-007   2.2198403504403905E-010   6.7592420952598682E-007
 abs          30           7   5.5000958410454867E-002   1.9243738290133292E-003   9.5013185881199656E-004   5.5000000000000000E-002   4.0777496276147807E-007   1.4721761410049791E-010   5.5048827448895272E-007
 abs          30           8   8.4900737193592535E-002   1.6234639404006941E-003   8.0012693624799630E-004   8.4900000000000003E-002   2.8735415954350556E-007   8.9862818513851251E-011   4.4974957018459891E-007
 abs          30           9  0.19950056458599977        1.4225540292034137E-003   7.0012201363821335E-004  0.19950000000000001        2.0249505376143931E-007   8.1537633079546374E-011   3.6200940837112946E-007
 abs          30          10  0.28500043460151148        1.2217090973309030E-003   6.0011744260353894E-004  0.28499999999999998        1.4269585261263684E-007   8.8379955710801886E-011   2.9181727892035392E-007
 abs          30          11  0.35120033722113253        9.2053920424071305E-004   4.5011111351412144E-004  0.35120000000000001        1.0055606778838213E-007   9.1591415248405375E-011   2.3657347333409537E-007
 abs          30          12  0.45590026480449636        7.2001924264875972E-004   3.5010830057857545E-004  0.45590000000000003        7.0860663319420489E-008   2.6554987673959923E-010   1.9367828311417696E-007
 abs          30          13  0.64330020659970344        7.1943425191890037E-004   3.5010513590895550E-004  0.64329999999999998        4.9934665470763322E-008   3.2600946467202776E-011   1.5663243701515656E-007
 CDOM          31           1   1.6536043389142166E-008   100.00000000000000        2.0137527074704766     
 CDOM          31           2   1.6536043389142166E-008   100.00000000000000        1.4190675485932573     
 CDOM          31           3   1.6536043389142166E-008   100.00000000000000        1.0000000000000000     
 CDOM          31           4   1.6536043389142166E-008   100.00000000000000       0.70468808971871344     
 CDOM          31           5   1.6536043389142166E-008   100.00000000000000       0.49658530379140947     
 CDOM          31           6   1.6536043389142166E-008   100.00000000000000       0.34993774911115533     
 CDOM          31           7   1.6536043389142166E-008   100.00000000000000       0.24659696394160643     
 CDOM          31           8   1.6536043389142166E-008   100.00000000000000       0.17377394345044514     
 CDOM          31           9   1.6536043389142166E-008   100.00000000000000       0.12245642825298191     
 CDOM          31          10   1.6536043389142166E-008   100.00000000000000        8.6293586499370495E-002
 CDOM          31          11   1.6536043389142166E-008   100.00000000000000        6.0810062625217952E-002
 CDOM          31          12   1.6536043389142166E-008   100.00000000000000        4.2852126867040187E-002
 CDOM          31          13   1.6536043389142166E-008   100.00000000000000        3.0197383422318501E-002
 abs          31           1   6.3053157012770526E-003   7.6330903311706885E-003   3.8001790153248749E-003   6.3000000000000000E-003   3.3299502145734315E-006   4.2221926396390717E-010   1.9853288432148690E-006
 abs          31           2   5.1039496504559313E-003   5.8311438465044399E-003   2.9001684850074568E-003   5.1000000000000004E-003   2.3465762555661713E-006   5.3751973113055878E-010   1.6025366806342242E-006
 abs          31           3   8.3029258235851264E-003   4.5275754271289995E-003   2.2501491799052208E-003   8.3000000000000001E-003   1.6536043389142166E-006   5.7070611314425602E-010   1.2716485400984129E-006
 abs          31           4   1.1902203837191804E-002   3.6282242366803157E-003   1.8001526899529743E-003   1.1900000000000001E-002   1.1652752827400353E-006   4.8146816564739610E-010   1.0380804408966636E-006
 abs          31           5   2.1501658457070503E-002   2.9269266733609285E-003   1.4501456700452763E-003   2.1499999999999998E-002   8.2115561299050910E-007   3.4910204263149909E-010   8.3695235547293508E-007
 abs          31           6   4.0701253632850563E-002   2.3254993474953671E-003   1.1501379480743715E-003   4.0700000000000000E-002   5.7865858028008103E-007   2.2198370317920965E-010   6.7475228658283131E-007
 abs          31           7   5.5000957454860326E-002   1.9243315721741015E-003   9.5013163020250173E-004   5.5000000000000000E-002   4.0777380953691301E-007   1.4721739401102902E-010   5.4953383339967134E-007
 abs          31           8   8.4900736413000263E-002   1.6234232611500297E-003   8.0012671617325575E-004   8.4900000000000003E-002   2.8735334687988978E-007   8.9862684169465073E-011   4.4896979068780701E-007
 abs          31           9  0.19950056395777210        1.4225149275413466E-003   7.0012180209822698E-004  0.19950000000000001        2.0249448108706835E-007   8.1537511181263514E-011   3.6138175348715097E-007
 abs          31          10  0.28500043409515258        1.2216714605725546E-003   6.0011723898868166E-004  0.28499999999999998        1.4269544905582832E-007   8.8379823583286891E-011   2.9131132372662622E-007
 abs          31          11  0.35120033681067503        9.2050359581057181E-004   4.5011092087251977E-004  0.35120000000000001        1.0055578340670565E-007   9.1591278319777237E-011   2.3616330030399094E-007
 abs          31          12  0.45590026446849458        7.1998453569783517E-004   3.5010811281397628E-004  0.45590000000000003        7.0860462919040127E-008   2.6554947974409228E-010   1.9334248211700356E-007
 abs          31          13  0.64330020632799156        7.1940055913214535E-004   3.5010495363098425E-004  0.64329999999999998        4.9934524251002111E-008   3.2600897728979155E-011   1.5636086641005995E-007
 CDOM          32           1   2.5226420624972859E-010   100.00000000000000        2.0137527074704766     
 CDOM          32           2   2.5226420624972859E-010   100.00000000000000        1.4190675485932573     
 CDOM          32           3   2.5226420624972859E-010   100.00000000000000        1.0000000000000000     
 CDOM          32           4   2.5226420624972859E-010   100.00000000000000       0.70468808971871344     
 CDOM          32           5   2.5226420624972859E-010   100.00000000000000       0.49658530379140947     
 CDOM          32           6   2.5226420624972859E-010   100.00000000000000       0.34993774911115533     
 CDOM          32           7   2.5226420624972859E-010   100.00000000000000       0.24659696394160643     
 CDOM          32           8   2.5226420624972859E-010   100.00000000000000       0.17377394345044514     
 CDOM          32           9   2.5226420624972859E-010   100.00000000000000       0.12245642825298191     
 CDOM          32          10   2.5226420624972859E-010   100.00000000000000        8.6293586499370495E-002
 CDOM          32          11   2.5226420624972859E-010   100.00000000000000        6.0810062625217952E-002
 CDOM          32          12   2.5226420624972859E-010   100.00000000000000        4.2852126867040187E-002
 CDOM          32          13   2.5226420624972859E-010   100.00000000000000        3.0197383422318501E-002
 abs          32           1   6.3005151454677546E-003   7.6077390949141023E-003   3.8000418685034849E-003   6.3000000000000000E-003   5.0799772833328171E-008   9.4999291642202704E-017   4.6434569482565627E-007
 abs          32           2   5.1004106129839575E-003   5.8072838540368030E-003   2.9000394056503381E-003   5.1000000000000004E-003   3.5797994876062625E-008   1.2094188508053358E-016   3.7481498896057871E-007
 abs          32           3   8.3003226504605749E-003   4.5064492457617851E-003   2.2500348904195703E-003   8.3000000000000001E-003   2.5226420624972859E-008   1.2840881767349619E-016   2.9742403982296939E-007
 abs          32           4   1.1900260571892819E-002   3.6066009927208814E-003   1.8000357113706193E-003   1.1900000000000001E-002   1.7776758160652878E-008   1.0833028852203975E-016   2.4279513454936276E-007
 abs          32           5   2.1500208280647057E-002   2.9062974988027027E-003   1.4500340694685219E-003   2.1499999999999998E-002   1.2527069749622025E-008   7.8547924245525325E-017   1.9575357723042374E-007
 abs          32           6   4.0700166644514361E-002   2.3059636554927051E-003   1.1500322633762148E-003   4.0700000000000000E-002   8.8276768516342261E-009   4.9946310739484883E-017   1.5781683745708580E-007
 abs          32           7   5.5000134750433124E-002   1.9056905109663522E-003   9.5003078566432714E-004   5.5000000000000000E-002   6.2207587372322290E-009   3.3123898746728751E-017   1.2852967435206891E-007
 abs          32           8   8.4900109392590295E-002   1.6054780652236236E-003   8.0002963633285897E-004   8.4900000000000003E-002   4.3836945911411769E-009   2.0219094839537983E-017   1.0500889569259940E-007
 abs          32           9  0.19950008761219362        1.4052656194808899E-003   7.0002848700139082E-004  0.19950000000000001        3.0891373673415321E-009   1.8345931760115935E-017   8.4523056214996907E-008
 abs          32          10  0.28500007031126290        1.2050683484340623E-003   6.0002741976502747E-004  0.28499999999999998        2.1768783102705995E-009   1.9885451357787443E-017   6.8134384632914926E-008
 abs          32          11  0.35120005676991339        9.0479520390768903E-004   4.5002594205313976E-004  0.35120000000000001        1.5340202180146894E-009   2.0608028348338175E-017   5.5235893109980023E-008
 abs          32          12  0.45590004630159969        7.0467380634040976E-004   3.5002528529230081E-004  0.45590000000000003        1.0810057770226562E-009   5.9748606055551089E-017   4.5220593809818811E-008
 abs          32          13  0.64330003733278895        7.0453723407721310E-004   3.5002454643635693E-004  0.64329999999999998        7.6177189598498890E-010   7.3351986881812768E-018   3.6571017141497766E-008
 CDOM          33           1   9.2897612754035773E-011   100.00000000000000        2.0137527074704766     
 CDOM          33           2   9.2897612754035773E-011   100.00000000000000        1.4190675485932573     
 CDOM          33           3   9.2897612754035773E-011   100.00000000000000        1.0000000000000000     
 CDOM          33           4   9.2897612754035773E-011   100.00000000000000       0.70468808971871344     
 CDOM          33           5   9.2897612754035773E-011   100.00000000000000       0.49658530379140947     
 CDOM          33           6   9.2897612754035773E-011   100.00000000000000       0.34993774911115533     
 CDOM          33           7   9.2897612754035773E-011   100.00000000000000       0.24659696394160643     
 CDOM          33           8   9.2897612754035773E-011   100.00000000000000       0.17377394345044514     
 CDOM          33           9   9.2897612754035773E-011   100.00000000000000       0.12245642825298191     
 CDOM          33          10   9.2897612754035773E-011   100.00000000000000        8.6293586499370495E-002
 CDOM          33          11   9.2897612754035773E-011   100.00000000000000        6.0810062625217952E-002
 CDOM          33          12   9.2897612754035773E-011   100.00000000000000        4.2852126867040187E-002
 CDOM          33          13   9.2897612754035773E-011   100.00000000000000        3.0197383422318501E-002
 abs          33           1   6.3001894299408983E-003   7.6028453776496377E-003   3.8000153934930844E-003   6.3000000000000000E-003   1.8707281920098340E-008   2.1374831535192889E-023   1.7072265897827275E-007
 abs          33           2   5.1001509883437527E-003   5.8026780024937764E-003   2.9000144879934913E-003   5.1000000000000004E-003   1.3182798760103526E-008   2.7211912578058086E-023   1.3780554499226590E-007
 abs          33           3   8.3001186415297724E-003   4.5023711480413646E-003   2.2500128279109035E-003   8.3000000000000001E-003   9.2897612754035768E-009   2.8891971697449606E-023   1.0935176849588712E-007
 abs          33           4   1.1900095813133921E-002   3.6024269397599853E-003   1.8000131297441016E-003   1.1900000000000001E-002   6.5463841271070259E-009   2.4374304558380302E-023   8.9266749792560924E-008
 abs          33           5   2.1500076584475943E-002   2.9023153563227442E-003   1.4500125260777060E-003   2.1499999999999998E-002   4.6131589250959566E-009   1.7673275444101711E-023   7.1971317020252242E-008
 abs          33           6   4.0700061274225513E-002   2.3021926145417797E-003   1.1500118620446709E-003   4.0700000000000000E-002   3.2508381504947034E-009   1.1237915140270525E-023   5.8023387365164596E-008
 abs          33           7   5.5000049546412598E-002   1.9020921894482630E-003   9.5001131874491507E-004   5.5000000000000000E-002   2.2908269262568276E-009   7.4528740505427370E-024   4.7255585671436936E-008
 abs          33           8   8.4900040222187750E-002   1.6020140810421948E-003   8.0001089617843830E-004   8.4900000000000003E-002   1.6143184505401163E-009   4.5492944054460717E-024   3.8607869285282594E-008
 abs          33           9  0.19950003221357829        1.4019359726361261E-003   7.0001047361196143E-004  0.19950000000000001        1.1375909851087878E-009   4.1278328916972395E-024   3.1075987271535270E-008
 abs          33          10  0.28500002585212841        1.2018634434019196E-003   6.0001008122880439E-004  0.28499999999999998        8.0164681817754091E-010   4.4742246539568397E-024   2.5050481660537409E-008
 abs          33          11  0.35120002087309654        9.0176301830840306E-004   4.5000953792904844E-004  0.35120000000000001        5.6491096493061611E-010   4.6368044077343652E-024   2.0308185577807606E-008
 abs          33          12  0.45590001702401817        7.0171838493350677E-004   3.5000929646249027E-004  0.45590000000000003        3.9808602873811112E-010   1.3443430649041395E-023   1.6625932148864470E-008
 abs          33          13  0.64330001372633061        7.0166817238674845E-004   3.5000902481261228E-004  0.64329999999999998        2.8052648313516832E-010   1.6504190034127636E-024   1.3445804187504488E-008
 CDOM          34           1   3.9612912794267775E-011   100.00000000000000        2.0137527074704766     
 CDOM          34           2   3.9612912794267775E-011   100.00000000000000        1.4190675485932573     
 CDOM          34           3   3.9612912794267775E-011   100.00000000000000        1.0000000000000000     
 CDOM          34           4   3.9612912794267775E-011   100.00000000000000       0.70468808971871344     
 CDOM          34           5   3.9612912794267775E-011   100.00000000000000       0.49658530379140947     
 CDOM          34           6   3.9612912794267775E-011   100.00000000000000       0.34993774911115533     
 CDOM          34           7   3.9612912794267775E-011   100.00000000000000       0.24659696394160643     
 CDOM          34           8   3.9612912794267775E-011   100.00000000000000       0.17377394345044514     
 CDOM          34           9   3.9612912794267775E-011   100.00000000000000       0.12245642825298191     
 CDOM          34          10   3.9612912794267775E-011   100.00000000000000        8.6293586499370495E-002
 CDOM          34          11   3.9612912794267775E-011   100.00000000000000        6.0810062625217952E-002
 CDOM          34          12   3.9612912794267775E-011   100.00000000000000        4.2852126867040187E-002
 CDOM          34          13   3.9612912794267775E-011   100.00000000000000        3.0197383422318501E-002
 abs          34           1   6.3000807272867660E-003   7.6012125037621236E-003   3.8000065596453529E-003   6.3000000000000000E-003   7.9770610390248614E-009   3.4199720059594449E-030   7.2750225727411932E-008
 abs          34           2   5.1000643445613253E-003   5.8011411800114104E-003   2.9000061737838615E-003   5.1000000000000004E-003   5.6213399051600051E-009   4.3539046889023576E-030   5.8723221420492636E-008
 abs          34           3   8.3000505594750789E-003   4.5010104198017695E-003   2.2500054663711273E-003   8.3000000000000001E-003   3.9612912794267775E-009   4.6227140662869577E-030   4.6598183799257318E-008
 abs          34           4   1.1900040830808499E-002   3.6010341943853406E-003   1.8000055949916247E-003   1.1900000000000001E-002   2.7914747845186543E-009   3.8998875437751150E-030   3.8039333713679446E-008
 abs          34           5   2.1500032636331840E-002   2.9009866452181982E-003   1.4500053377506303E-003   2.1499999999999998E-002   1.9671190334004073E-009   2.8277232114284753E-030   3.0669212806654049E-008
 abs          34           6   4.0700026111772265E-002   2.3009343411343423E-003   1.1500050547855367E-003   4.0700000000000000E-002   1.3862053538962551E-009   1.7980658758312948E-030   2.4725566913891637E-008
 abs          34           7   5.5000021113914693E-002   1.9008915468839143E-003   9.5000482326864201E-004   5.5000000000000000E-002   9.7684240279500508E-010   1.1924594855791793E-030   2.0137072284679055E-008
 abs          34           8   8.4900017140381048E-002   1.6008582624669149E-003   8.0000464319994610E-004   8.4900000000000003E-002   6.8836920678185028E-010   7.2788688359377379E-031   1.6452011831166360E-008
 abs          34           9  0.19950001372752865        1.4008249780499153E-003   7.0000446313124999E-004  0.19950000000000001        4.8508558134828805E-010   6.6045306189384129E-031   1.3242443049074655E-008
 abs          34          10  0.28500001101662198        1.2007940710912729E-003   6.0000429592460373E-004  0.28499999999999998        3.4183403167041666E-010   7.1587572700688817E-031   1.0674788023401295E-008
 abs          34          11  0.35120000889483483        9.0075127684084515E-004   4.5000406440770898E-004  0.35120000000000001        2.4088637077867210E-010   7.4188847970341559E-031   8.6539484198620733E-009
 abs          34          12  0.45590000725457569        7.0073225717398829E-004   3.5000396151131126E-004  0.45590000000000003        1.6974975646329621E-010   2.1509482499584006E-030   7.0848259041727955E-009
 abs          34          13  0.64330000584929525        7.0071086004877439E-004   3.5000384575286389E-004  0.64329999999999998        1.1962063161233702E-010   2.6406696026969180E-031   5.7296746406229660E-009
 CDOM          35           1   1.9547680664960570E-011   100.00000000000000        2.0137527074704766     
 CDOM          35           2   1.9547680664960570E-011   100.00000000000000        1.4190675485932573     
 CDOM          35           3   1.9547680664960570E-011   100.00000000000000        1.0000000000000000     
 CDOM          35           4   1.9547680664960570E-011   100.00000000000000       0.70468808971871344     
 CDOM          35           5   1.9547680664960570E-011   100.00000000000000       0.49658530379140947     
 CDOM          35           6   1.9547680664960570E-011   100.00000000000000       0.34993774911115533     
 CDOM          35           7   1.9547680664960570E-011   100.00000000000000       0.24659696394160643     
 CDOM          35           8   1.9547680664960570E-011   100.00000000000000       0.17377394345044514     
 CDOM          35           9   1.9547680664960570E-011   100.00000000000000       0.12245642825298191     
 CDOM          35          10   1.9547680664960570E-011   100.00000000000000        8.6293586499370495E-002
 CDOM          35          11   1.9547680664960570E-011   100.00000000000000        6.0810062625217952E-002
 CDOM          35          12   1.9547680664960570E-011   100.00000000000000        4.2852126867040187E-002
 CDOM          35          13   1.9547680664960570E-011   100.00000000000000        3.0197383422318501E-002
 abs          35           1   6.3000398566609864E-003   7.6005986706916733E-003   3.8000032388084419E-003   6.3000000000000000E-003   3.9364194863832631E-009   4.9247589794163098E-037   3.5920241500414288E-008
 abs          35           2   5.1000317683912314E-003   5.8005634547686332E-003   2.9000030482902979E-003   5.1000000000000004E-003   2.7739479281909407E-009   6.2696218491938505E-037   2.8994443302621986E-008
 abs          35           3   8.3000249625044525E-003   4.5004988922430610E-003   2.2500026990070346E-003   8.3000000000000001E-003   1.9547680664960569E-009   6.6567072968873704E-037   2.3007736385886276E-008
 abs          35           4   1.1900020159327396E-002   3.6005106308840745E-003   1.8000027625130828E-003   1.1900000000000001E-002   1.3775017746222494E-009   5.6158372543556029E-037   1.8781825621131655E-008
 abs          35           5   2.1500016113555998E-002   2.9004871536020480E-003   1.4500026355009871E-003   2.1499999999999998E-002   9.7070909414269042E-010   4.0719208381004064E-037   1.5142846907037396E-008
 abs          35           6   4.0700012892233794E-002   2.3004613285918189E-003   1.1500024957876818E-003   4.0700000000000000E-002   6.8404713722399531E-010   2.5892144883501798E-037   1.2208186653735574E-008
 abs          35           7   5.5000010424668809E-002   1.9004401990379953E-003   9.5000238147679560E-004   5.5000000000000000E-002   4.8203987040793183E-010   1.7171414119656556E-037   9.9426289381865689E-009
 abs          35           8   8.4900008462827331E-002   1.6004237649405769E-003   8.0000229256832857E-004   8.4900000000000003E-002   3.3968775544602175E-010   1.0481569614404319E-037   8.1231395811394408E-009
 abs          35           9  0.19950000677779697        1.4004073308431582E-003   7.0000220365986146E-004  0.19950000000000001        2.3937391548609454E-010   9.5105227217560400E-038   6.5384230443564564E-009
 abs          35          10  0.28500000543933374        1.2003920706098411E-003   6.0000212110199918E-004  0.28499999999999998        1.6868394723238470E-010   1.0308608984459503E-037   5.2706498149300705E-009
 abs          35          11  0.35120000439173493        9.0037094105601735E-004   4.5000200679111305E-004  0.35120000000000001        1.1886956854140143E-010   1.0683192569349462E-037   4.2728653288074513E-009
 abs          35          12  0.45590000358188104        7.0036155014320675E-004   3.5000195598627475E-004  0.45590000000000003        8.3765969181127873E-011   3.0973650339195327E-037   3.4981150219357702E-009
 abs          35          13  0.64330000288804134        7.0035098536629494E-004   3.5000189883083166E-004  0.64329999999999998        5.9028880805685615E-011   3.8025636803143944E-038   2.8290124841829554E-009
 ed   5.1488143384456633        6.6259428633583912        8.0747629715336693        8.5091591285334687        8.5177463498380455        8.3535631444719112        8.4502077771557698        8.3198294619719189        7.8907388998402492        7.8268314725822874        7.3970040844546423        6.7449332939253912        3.3241547925604715     
 es   3.8721624715460674        4.4531742923789555        5.0471708933512369        4.9449656413661112        4.6620081279012897        4.3358669622076889        4.2115973141458296        4.0423952798048655        3.7312923898299539        3.6359325677156447        3.4215801950958040        3.0626243280039893        1.5068311421407592     
 PAR   7.0532535774530530E-002  0.57919177943301703        2.5915315220875246        6.8200374923349960        12.610002491624149        17.852616599338575        23.548685873525500        25.120655505222473        14.458986038336494        9.9209691008634682        7.0728282326172023        3.7465993468750689       0.64403421373667502     
 chl2c           1   3.7477407714772232E-002   3.7477407714772232E-002  0.60826437499999997        6.2880233218618850E-005   1.4241082076598276E-016
 chl           1   3.1515947000230023E-005   8.4093188195104502E-004   3.7477407714772232E-002
 chl2c           2   8.4304985778174968E-002   3.2640259920490348E-002  0.48302390000000001        3.4992171942340912E-005   1.7868822947829178E-006
 chl           2   7.1413735389430925E-005   8.4708792404444768E-004   8.4304985778174968E-002
 chl2c           3   3.7922212503796585E-002   3.7922212503796585E-002  0.75128689999999998        6.2880233218618850E-005   1.5356472909459950E-016
 chl           3   3.1889997528566401E-005   8.4093188195107907E-004   3.7922212503796585E-002
 chl2c           4   6.4715718534624628E-002   3.7976509103863923E-002  0.77318742499999993        6.2880233218618850E-005   2.2205277083926704E-006
 chl           4   5.4787865165267236E-005   8.4659285882693672E-004   6.4715718534624628E-002
 chl2c           5   5.9362219815209290E-002   2.5710500362372445E-002  0.48489679999999996        8.3402336674566629E-005   2.8208033820509968E-006
 chl           5   5.0446054634584960E-005   8.4980067779844199E-004   5.9362219815209290E-002
 chl2c           6   3.1261039902252048E-002   3.1261039902252048E-002  0.29222855000000003        3.4992171942340912E-005   1.0219859411716392E-016
 chl           6   2.6343497207542501E-005   8.4269420626806194E-004   3.1261039902252048E-002
 chl2c           7   8.7129640803588260E-002   4.3064391842467263E-002  0.22770740000000000        1.8468009791723283E-005   1.3032164467792288E-006
 chl           7   7.3667982702279303E-005   8.4549852407110387E-004   8.7129640803588260E-002
 chl2c           8   4.7969800906495587E-002   4.7969800906495587E-002  0.49578364999999996        1.8468009791723283E-005   7.3518854600806300E-017
 chl           8   4.0423873299732072E-005   8.4269420626797466E-004   4.7969800906495587E-002
 chl2c           9   2.4803669054600401E-002   2.4803669054600401E-002  0.28700202499999999        8.3402336674566629E-005   1.3650067076391138E-016
 chl           9   2.0901908881637945E-005   8.4269423348725151E-004   2.4803669054600401E-002
 chl2c          10   6.7878759279806994E-002   2.5387016219684602E-002  0.39094662499999999        8.3402336674566629E-005   3.4253568605350665E-006
 chl          10   5.7773532146621768E-005   8.5112828754677322E-004   6.7878759279806994E-002
 chl2c          11   2.1820572217820047E-002   2.1820572217820047E-002  0.49737575000000001        6.2880233218618850E-005   1.4140742141445143E-016
 chl          11   1.8388069785413397E-005   8.4269420626818152E-004   2.1820572217820047E-002
 chl2c          12   4.5290941298723353E-002   4.5290941298723353E-002  0.30768942500000002        1.8468009791723283E-005   7.2893539445728668E-017
 chl          12   3.8166413828857026E-005   8.4269420626797281E-004   4.5290941298723353E-002
 chl2c          13   3.7935816987997487E-002   3.7935816987997487E-002  0.75666275000000005        6.2880233218618850E-005   1.2772987857345325E-016
 chl          13   3.1901437970588742E-005   8.4093188188571349E-004   3.7935816987997487E-002
 chl2c          14   4.6856526101924839E-002   4.6856526101924839E-002  0.39804095000000000        1.8468009791723283E-005   8.0962402755170741E-017
 chl          14   3.9485723071937251E-005   8.4269420626799732E-004   4.6856526101924839E-002
 chl2c          15   8.3958013750801502E-002   2.0954299823745293E-002  0.25607262500000000        6.2880233218618850E-005   3.9272786532478249E-006
 chl          15   7.1492905161325219E-005   8.5153164024968030E-004   8.3958013750801502E-002
 chl2c          16   3.7823443882273475E-002   3.7823443882273475E-002  0.71433214999999994        6.2880233218618850E-005   1.5985819295947332E-016
 chl          16   3.1806939845791985E-005   8.4093188195109826E-004   3.7823443882273475E-002
 chl2c          17   3.7542254757581245E-002   3.7542254757581245E-002  0.62580860000000005        6.2880233218618850E-005   1.5977828269496938E-016
 chl          17   3.1570478945980360E-005   8.4093188195109804E-004   3.7542254757581245E-002
 chl2c          18   2.5694475239060960E-002   2.5694475239060960E-002  0.47925950000000000        8.3402336674566629E-005   1.4760975836555203E-016
 chl          18   2.1652585417058405E-005   8.4269420626820039E-004   2.5694475239060960E-002
 chl2c          19   3.7570220750293731E-002   3.7570220750293731E-002  0.63367130000000005        6.2880233218618850E-005   7.8837053147569326E-007
 chl          19   3.1679136330918701E-005   8.4319803552581013E-004   3.7570220750293731E-002
 chl2c          20   3.7020645196759419E-002   3.7020645196759419E-002  0.50678202500000002        6.2880233218618850E-005   1.4063372557228220E-016
 chl          20   3.1131840833935658E-005   8.4093188188575285E-004   3.7020645196759419E-002
 chl2c          21   3.7838475073783531E-002   3.7838475073783531E-002  0.71973185000000006        6.2880233218618850E-005   1.8831046442996580E-008
 chl          21   3.1821333755653742E-005   8.4097822900112648E-004   3.7838475073783531E-002
 chl2c          22   9.4665171506732163E-002   3.7613353106285476E-002  0.64616892500000001        6.2880233218618850E-005   3.4871607684119327E-006
 chl          22   8.0429169150080903E-005   8.4961731828015700E-004   9.4665171506732163E-002
 chl2c          23   3.2286562315070731E-002   3.2286562315070731E-002  0.41564179999999995        3.4992171942340912E-005   9.6376696997170855E-017
 chl          23   2.7207699003222280E-005   8.4269420626804426E-004   3.2286562315070731E-002
 chl2c          24   3.7348402796863071E-002   3.7348402796863071E-002  0.57597492500000003        6.2880233218618850E-005   1.1419223181042336E-016
 chl          24   3.1407462649390172E-005   8.4093188188567229E-004   3.7348402796863071E-002
 chl2c          25   4.5426679235459781E-002   4.5426679235459781E-002  0.31406487500000002        1.8468009791723283E-005   7.6596317910275414E-017
 chl          25   3.8280799401716094E-005   8.4269420626798409E-004   4.5426679235459781E-002
 chl2c          26   4.7955660680174553E-002   4.7955660680174553E-002  0.49427735000000000        1.8468009791723283E-005   7.0418670745964583E-017
 chl          26   4.0411957412935556E-005   8.4269420626796512E-004   4.7955660680174553E-002
 chl2c          27   4.5333133499525620E-002   4.5333133499525620E-002  0.30964730000000001        1.8468009791723283E-005   8.0347905147844499E-017
 chl          27   3.8201968952023816E-005   8.4269420626799547E-004   4.5333133499525620E-002
 chl2c          28   3.1209236063453518E-002   3.1209236063453518E-002  0.28776342500000002        3.4992171942340912E-005   7.9909733646390577E-017
 chl          28   2.6299842412722421E-005   8.4269420626799417E-004   3.1209236063453518E-002
 chl2c          29   9.3378118421968193E-002   3.7743217595736761E-002  0.68676297499999994        6.2880233218618850E-005   3.3978146247121963E-006
 chl          29   7.9319281673636486E-005   8.4944185012594754E-004   9.3378118421968193E-002
 chl2c          30   2.5380056985171612E-002   2.5380056985171612E-002  0.38930277499999999        8.3402336674566629E-005   1.6181881189438069E-016
 chl          30   2.1387626976161984E-005   8.4269420626824365E-004   2.5380056985171612E-002
 chl2c          31   9.7567048112615351E-002   3.7576959810037038E-002  0.63559385000000002        6.2880233218618850E-005   3.6237905610211126E-006
 chl          31   8.2925986975909146E-005   8.4993846365212392E-004   9.7567048112615351E-002
 chl2c          32   7.4603661863838100E-002   2.0893126428578448E-002  0.24722667500000001        6.2880233218618850E-005   3.3592391892228113E-006
 chl          32   6.3441129684369408E-005   8.5037554591030871E-004   7.4603661863838100E-002
 chl2c          33   3.7458922634011876E-002   3.7458922634011876E-002  0.60343137499999999        6.2880233218618850E-005   1.1010453506301674E-006
 chl          33   3.1610682017797419E-005   8.4387589911877542E-004   3.7458922634011876E-002
 chl2c          34   5.6003044930184466E-002   2.5350269098008315E-002  0.38241020000000003        8.3402336674566629E-005   2.7360854761720084E-006
 chl          34   4.7575540276145190E-005   8.4951702778759042E-004   5.6003044930184466E-002
 chl2c          35   2.5740370148566064E-002   2.5740370148566064E-002  0.49574644999999995        8.3402336674566629E-005   1.1684016511832501E-016
 chl          35   2.1691260791393149E-005   8.4269420626810682E-004   2.5740370148566064E-002
 chl2c          36   3.7770393924465726E-002   3.7770393924465726E-002  0.69587337500000002        6.2880233218618850E-005   1.2167885493292611E-016
 chl          36   3.1762328444930899E-005   8.4093188195098192E-004   3.7770393924465726E-002
 chl2c          37   2.1353674699533250E-002   2.1353674699533250E-002  0.33194060000000003        6.2880233218618850E-005   1.0697833457750668E-016
 chl          37   1.7994617951829885E-005   8.4269420626807679E-004   2.1353674699533250E-002
 chl2c          38   2.1543295686358745E-002   2.1543295686358745E-002  0.38455722500000000        6.2880233218618850E-005   1.6517654632646087E-016
 chl          38   1.8154410458818385E-005   8.4269420626825406E-004   2.1543295686358745E-002
 chl2c          39   2.5670077108751441E-002   2.5670077108751441E-002  0.47091117500000002        8.3402336674566629E-005   1.3295853413169576E-016
 chl          39   2.1632025254001654E-005   8.4269420626815594E-004   2.5670077108751441E-002
 chl2c          40   3.7687445774703773E-002   3.7687445774703773E-002  0.66875547499999999        6.2880233218618850E-005   1.6016672774065856E-016
 chl          40   3.1692574701251649E-005   8.4093188195109923E-004   3.7687445774703773E-002
 chl2c          41   2.5582381488167241E-002   2.5582381488167241E-002  0.44304987499999998        8.3402336674566629E-005   9.6330214928824793E-017
 chl          41   2.1558124662617403E-005   8.4269420626804437E-004   2.5582381488167241E-002
 chl2c          42   3.7949995630725070E-002   3.7949995630725070E-002  0.76234377499999995        6.2880233218618850E-005   1.3510773773267524E-016
 chl          42   3.1913361243301092E-005   8.4093188188573594E-004   3.7949995630725070E-002
 chl2c          43   2.1185090152268007E-002   2.1185090152268007E-002  0.29539925000000000        6.2880233218618850E-005   1.6446882056497854E-016
 chl          43   1.7852552730586847E-005   8.4269420626825189E-004   2.1185090152268007E-002
 chl2c          44   3.7536352708156646E-002   3.7536352708156646E-002  0.62417262500000004        6.2880233218618850E-005   1.1542629730355484E-016
 chl          44   3.1565515721994664E-005   8.4093188188567609E-004   3.7536352708156646E-002
 chl2c          45  0.13209858197670560        4.6544927192009838E-002  0.37662252499999999        1.8468009791723283E-005   1.8787680088978436E-006
 chl          45   1.1186854438541708E-004   8.4685651209446058E-004  0.13209858197670560     
 chl2c          46   9.4702771439978711E-002   3.7083195475449568E-002  0.51876034999999998        6.2880233218618850E-005   3.6424096027079941E-006
 chl          46   8.0484207730619229E-005   8.4986116569596903E-004   9.4702771439978711E-002
 chl2c          47   3.7519784612651236E-002   3.7519784612651236E-002  0.61962282499999999        6.2880233218618850E-005   1.4739971612600319E-016
 chl          47   3.1551583082265688E-005   8.4093188188577345E-004   3.7519784612651236E-002
 chl2c          48   3.7823212136301673E-002   3.7823212136301673E-002  0.71424949999999998        6.2880233218618850E-005   1.4175814880850801E-016
 chl          48   3.1806744960744337E-005   8.4093188188575621E-004   3.7823212136301673E-002
 chl2c          49   3.7152990741888416E-002   3.7152990741888416E-002  0.53276120000000005        6.2880233218618850E-005   1.3192547812602597E-016
 chl          49   3.1243134422259191E-005   8.4093188188572629E-004   3.7152990741888416E-002
 chl2c          50   3.9202474834319885E-002   2.1533072915600981E-002  0.38132569999999999        6.2880233218618850E-005   1.3737609007979585E-006
 chl          50   3.3171592425656530E-005   8.4616067138231779E-004   3.9202474834319885E-002
 chl2c          51   2.0700971146093840E-002   2.0700971146093840E-002  0.22275920000000002        6.2880233218618850E-005   1.7555437502705479E-016
 chl          51   1.7444588448940231E-005   8.4269420626828561E-004   2.0700971146093840E-002
 chl2c          52   3.7581825176985564E-002   3.7581825176985564E-002  0.63698869999999996        6.2880233218618850E-005   1.5686796447652627E-016
 chl          52   3.1603754973239296E-005   8.4093188195108915E-004   3.7581825176985564E-002
 chl2c          53   3.7925801262726190E-002   3.7925801262726190E-002  0.75269794999999995        6.2880233218618850E-005   1.4048280157038324E-016
 chl          53   3.1893015430365435E-005   8.4093188195103917E-004   3.7925801262726190E-002
 chl2c          54   3.7082433371327092E-002   3.7082433371327092E-002  0.51861124999999997        6.2880233218618850E-005   1.1524089340211240E-016
 chl          54   3.1183800479850261E-005   8.4093188188567544E-004   3.7082433371327092E-002
 chl2c          55   9.4868240857687650E-002   3.7357235588660491E-002  0.57808280000000001        6.2880233218618850E-005   3.5682480115176343E-006
 chl          55   8.0614314983962332E-005   8.4975028792715036E-004   9.4868240857687650E-002
 chl2c          56   3.7507394187257688E-002   3.7507394187257688E-002  0.61626080000000005        6.2880233218618850E-005   1.5728245420403372E-016
 chl          56   3.1541163580971998E-005   8.4093188195109045E-004   3.7507394187257688E-002
 chl2c          57  0.10235153984338596        3.7727617852646313E-002  0.68163462500000005        6.2880233218618850E-005   3.7865118885752840E-006
 chl          57   8.7035601113301180E-005   8.5035946939810976E-004  0.10235153984338596     
 chl2c          58   3.7765358178394853E-002   3.7765358178394853E-002  0.69416802499999997        6.2880233218618850E-005   5.0714416405372591E-007
 chl          58   3.1815194887352729E-005   8.4244388036954594E-004   3.7765358178394853E-002
 chl2c          59   3.7173699120809672E-002   3.7173699120809672E-002  0.53705127500000005        6.2880233218618850E-005   1.5999123949590041E-016
 chl          59   3.1260548758319427E-005   8.4093188188581183E-004   3.7173699120809672E-002
 chl2c          60   3.7607757740906807E-002   3.7607757740906807E-002  0.64452155000000000        6.2880233218618850E-005   1.1798701621284987E-007
 chl          60   3.1638663177149031E-005   8.4128023252859189E-004   3.7607757740906807E-002
 chl2c          61   3.7805373434125003E-002   3.7805373434125003E-002  0.70794139999999994        6.2880233218618850E-005   1.3749047802462335E-016
 chl          61   3.1791743827352022E-005   8.4093188188574320E-004   3.7805373434125003E-002
 chl2c          62   3.7956103087269030E-002   3.7956103087269030E-002  0.76481592499999995        6.2880233218618850E-005   1.1221317731924078E-016
 chl          62   3.1918497198223492E-005   8.4093188188566622E-004   3.7956103087269030E-002
 chl2c          63   4.6758038009859379E-002   3.7855601011927406E-002  0.72597904999999996        6.2880233218618850E-005   1.5712793517765904E-006
 chl          63   3.9508983509785950E-005   8.4496666651100931E-004   4.6758038009859379E-002
 chl2c          64   2.5708982294816416E-002   2.5708982294816416E-002  0.48435739999999999        8.3402336674566629E-005   9.3724354122701417E-017
 chl          64   2.1664810428889323E-005   8.4269420626803646E-004   2.5708982294816416E-002
 chl2c          65   3.7953597170552002E-002   3.7953597170552002E-002  0.76379975000000000        6.2880233218618850E-005   1.2398448852439034E-016
 chl          65   3.1916389895442020E-005   8.4093188195098886E-004   3.7953597170552002E-002
 chl2c          66   3.1840477731474713E-002   3.1840477731474713E-002  0.35213202499999996        3.4992171942340912E-005   7.6204574601340415E-017
 chl          66   2.6831786109118468E-005   8.4269420626798290E-004   3.1840477731474713E-002
 chl2c          67   3.7937587124568600E-002   3.7937587124568600E-002  0.75736760000000003        6.2880233218618850E-005   1.3117538413168688E-016
 chl          67   3.1902926534867086E-005   8.4093188188572401E-004   3.7937587124568600E-002
 chl2c          68   3.7855407263856986E-002   3.7855407263856986E-002  0.72590779999999999        6.2880233218618850E-005   2.2880510197032403E-007
 chl          68   3.1859577536680780E-005   8.4161233069335339E-004   3.7855407263856986E-002
 chl2c          69   7.5242825776604946E-002   2.1732330561541505E-002  0.45524217500000003        6.2880233218618850E-005   2.8340589670027622E-006
 chl          69   6.3933747923695225E-005   8.4969892164222756E-004   7.5242825776604946E-002
 chl2c          70   3.2658010878182209E-002   3.2658010878182209E-002  0.48694062500000002        3.4992171942340912E-005   9.6022873870865157E-017
 chl          70   2.7520716555282877E-005   8.4269420626804318E-004   3.2658010878182209E-002
 chl2c          71   4.3481058864416305E-002   4.3481058864416305E-002  0.23986107500000001        1.8468009791723283E-005   8.3849996303027228E-017
 chl          71   3.6641236387441750E-005   8.4269420626800610E-004   4.3481058864416305E-002
 chl2c          72   3.7549776402781669E-002   3.7549776402781669E-002  0.62790522500000001        6.2880233218618850E-005   1.5777860303824973E-016
 chl          72   3.1576804137233889E-005   8.4093188195109186E-004   3.7549776402781669E-002
 chl2c          73   3.1852614277819484E-002   3.1852614277819484E-002  0.35362212500000001        3.4992171942340912E-005   9.2438999191558593E-017
 chl          73   2.6842013506408880E-005   8.4269420626803223E-004   3.1852614277819484E-002
 chl2c          74   3.7616827685877569E-002   3.7616827685877569E-002  0.64719590000000005        6.2880233218618850E-005   1.1067504417944289E-007
 chl          74   3.1645385129999031E-005   8.4125608342777963E-004   3.7616827685877569E-002
 chl2c          75   3.7826830779512356E-002   3.7826830779512356E-002  0.71554212500000003        6.2880233218618850E-005   1.2440560898300157E-016
 chl          75   3.1809787995656966E-005   8.4093188195099016E-004   3.7826830779512356E-002
 chl2c          76   9.0341180966741305E-002   3.7257729557919804E-002  0.55513977500000000        6.2880233218618850E-005   3.3924030967889584E-006
 chl          76   7.6729077811753084E-005   8.4932560091283886E-004   9.0341180966741305E-002
 chl2c          77   3.7138172437479272E-002   3.7138172437479272E-002  0.52973029999999999        6.2880233218618850E-005   1.0932372266444049E-016
 chl          77   3.1230673237643501E-005   8.4093188188565744E-004   3.7138172437479272E-002
 chl2c          78  0.16715813725847870        4.7515248899399322E-002  0.45117492500000000        1.8468009791723283E-005   2.4519892791825480E-006
 chl          78   1.4175621557137386E-004   8.4803658317976157E-004  0.16715813725847870     
 prod   4.0125770011052430E-007   125.03667073176968        10.000000000000000     
 dcdom   4.9425387555581716E-013  -4.2286318890143676E-009
 chl2c           1   3.7477407714772232E-002   3.7477407714772232E-002  0.60826437499999997        3.2445965897821113E-006   1.4987823976982375E-016
 chl           1   3.2001771976185099E-005   8.5389502443017600E-004   3.7477407714772232E-002
 chl2c           2  0.38621136300428749        3.2640259920490348E-002  0.48302390000000001        1.8154872786043115E-006   1.7491428568657076E-006
 chl           2   3.3048275072651188E-004   8.5570436911987767E-004  0.38621136300428749     
 chl2c           3   3.7922212503796585E-002   3.7922212503796585E-002  0.75128689999999998        3.2445965897821113E-006   1.6152007115345999E-016
 chl           3   3.2381588572377075E-005   8.5389502443021200E-004   3.7922212503796585E-002
 chl2c           4  0.51306455535644058        3.7976509103863923E-002  0.77318742499999993        3.2445965897821113E-006   2.4740528359890463E-006
 chl           4   4.4001883881927373E-004   8.5762860487133068E-004  0.51306455535644058     
 chl2c           5  0.31224837268525313        2.5710500362372445E-002  0.48489679999999996        6.6972481766926344E-006   2.9366573246062049E-006
 chl           5   2.6807481986909610E-004   8.5853071887524604E-004  0.31224837268525313     
 chl2c           6   3.1261039902252048E-002   3.1261039902252048E-002  0.29222855000000003        1.8154872786043115E-006   1.0172210746677628E-016
 chl           6   2.6694400354858514E-005   8.5391914147217628E-004   3.1261039902252048E-002
 chl2c           7  0.21224480507174140        4.3064391842467263E-002  0.22770740000000000        8.5824188797503879E-007   1.3412555941624898E-006
 chl           7   1.8135139444552822E-004   8.5444444392516073E-004  0.21224480507174140     
 chl2c           8   4.7969800906495587E-002   4.7969800906495587E-002  0.49578364999999996        8.5824188797503879E-007   7.2549917952473032E-017
 chl           8   4.0962331206661705E-005   8.5391914147208803E-004   4.7969800906495587E-002
 chl2c           9   2.4803669054600401E-002   2.4803669054600401E-002  0.28700202499999999        6.6972481766926344E-006   2.4359433045143397E-008
 chl           9   2.1182203829526521E-005   8.5399477726049583E-004   2.4803669054600401E-002
 chl2c          10  0.28581349949934365        2.5387016219684602E-002  0.39094662499999999        6.6972481766926344E-006   3.5589921247418805E-006
 chl          10   2.4536536748515336E-004   8.5848068028612074E-004  0.28581349949934365     
 chl2c          11   2.1820572217820047E-002   2.1820572217820047E-002  0.49737575000000001        3.2445965897821113E-006   1.4800583965298250E-016
 chl          11   1.8633004294675634E-005   8.5391914147231918E-004   2.1820572217820047E-002
 chl2c          12   4.5290941298723353E-002   4.5290941298723353E-002  0.30768942500000002        8.5824188797503879E-007   7.1931602940222189E-017
 chl          12   3.8674801710268494E-005   8.5391914147208607E-004   4.5290941298723353E-002
 chl2c          13   3.7935816987997487E-002   3.7935816987997487E-002  0.75666275000000005        3.2445965897821113E-006   1.3453446988872932E-016
 chl          13   3.2393205371228175E-005   8.5389502436383693E-004   3.7935816987997487E-002
 chl2c          14   4.6856526101924839E-002   4.6856526101924839E-002  0.39804095000000000        8.5824188797503879E-007   8.0523818270239686E-017
 chl          14   4.0011684541321211E-005   8.5391914147211090E-004   4.6856526101924839E-002
 chl2c          15  0.23239388403724656        2.0954299823745293E-002  0.25607262500000000        3.2445965897821113E-006   4.0771806376066235E-006
 chl          15   1.9893777053486199E-004   8.5603703109061828E-004  0.23239388403724656     
 chl2c          16   3.7823443882273475E-002   3.7823443882273475E-002  0.71433214999999994        3.2445965897821113E-006   1.6808293299785073E-016
 chl          16   3.2297250537889432E-005   8.5389502443023227E-004   3.7823443882273475E-002
 chl2c          17   3.7542254757581245E-002   3.7542254757581245E-002  0.62580860000000005        3.2445965897821113E-006   1.6799962865561976E-016
 chl          17   3.2057144543390828E-005   8.5389502443023195E-004   3.7542254757581245E-002
 chl2c          18   2.5694475239060960E-002   2.5694475239060960E-002  0.47925950000000000        6.6972481766926344E-006   1.5441277269858215E-016
 chl          18   2.1941004236721209E-005   8.5391914147233902E-004   2.5694475239060960E-002
 chl2c          19  0.30274731915924852        3.7570220750293731E-002  0.63367130000000005        3.2445965897821113E-006   9.4047404720928608E-007
 chl          19   2.5908377931417695E-004   8.5577563505325686E-004  0.30274731915924852     
 chl2c          20   3.7020645196759419E-002   3.7020645196759419E-002  0.50678202500000002        3.2445965897821113E-006   1.4802216239269102E-016
 chl          20   3.1611744732253391E-005   8.5389502436387867E-004   3.7020645196759419E-002
 chl2c          21   5.4200162375440598E-002   3.7838475073783531E-002  0.71973185000000006        3.2445965897821113E-006   9.5089657463317532E-008
 chl          21   4.6294682486393857E-005   8.5414287443852930E-004   5.4200162375440598E-002
 chl2c          22  0.50352755842424990        3.7613353106285476E-002  0.64616892500000001        3.2445965897821113E-006   3.7004499452686064E-006
 chl          22   4.3200711094203842E-004   8.5796120532900106E-004  0.50352755842424990     
 chl2c          23   3.2286562315070731E-002   3.2286562315070731E-002  0.41564179999999995        1.8154872786043115E-006   9.5166531253611464E-017
 chl          23   2.7570113573172539E-005   8.5391914147215828E-004   3.2286562315070731E-002
 chl2c          24   3.7348402796863071E-002   3.7348402796863071E-002  0.57597492500000003        3.2445965897821113E-006   1.2036458656060761E-016
 chl          24   3.1891615316176155E-005   8.5389502436379312E-004   3.7348402796863071E-002
 chl2c          25   4.5426679235459781E-002   4.5426679235459781E-002  0.31406487500000002        8.5824188797503879E-007   7.5593241280727150E-017
 chl          25   3.8790710932672175E-005   8.5391914147209746E-004   4.5426679235459781E-002
 chl2c          26   4.7955660680174553E-002   4.7955660680174553E-002  0.49427735000000000        8.5824188797503879E-007   6.9484648689960929E-017
 chl          26   4.0950256596740965E-005   8.5391914147207849E-004   4.7955660680174553E-002
 chl2c          27   4.5333133499525620E-002   4.5333133499525620E-002  0.30964730000000001        8.5824188797503879E-007   7.9910906532325255E-017
 chl          27   3.8710830438155423E-005   8.5391914147210906E-004   4.5333133499525620E-002
 chl2c          28   3.1209236063453518E-002   3.1209236063453518E-002  0.28776342500000002        1.8154872786043115E-006   7.9473882525896754E-017
 chl          28   2.6650164065304573E-005   8.5391914147210776E-004   3.1209236063453518E-002
 chl2c          29  0.52268101304897474        3.7743217595736761E-002  0.68676297499999994        3.2445965897821113E-006   3.5490610404976303E-006
 chl          29   4.4848444175117706E-004   8.5804617071321559E-004  0.52268101304897474     
 chl2c          30   2.5380056985171612E-002   2.5380056985171612E-002  0.38930277499999999        6.6972481766926344E-006   1.6906615408758899E-016
 chl          30   2.1672516471297938E-005   8.5391914147238445E-004   2.5380056985171612E-002
 chl2c          31  0.49919109005743312        3.7576959810037038E-002  0.63559385000000002        3.2445965897821113E-006   3.7735843780981661E-006
 chl          31   4.2828051487477840E-004   8.5794903676166120E-004  0.49919109005743312     
 chl2c          32  0.22253692302163375        2.0893126428578448E-002  0.24722667500000001        3.2445965897821113E-006   3.6150257181411822E-006
 chl          32   1.9047662437564350E-004   8.5593267754999224E-004  0.22253692302163375     
 chl2c          33  0.34147840292780685        3.7458922634011876E-002  0.60343137499999999        3.2445965897821113E-006   1.2761405544845843E-006
 chl          33   2.9236645273374048E-004   8.5617845880446716E-004  0.34147840292780685     
 chl2c          34  0.26354313701578486        2.5350269098008315E-002  0.38241020000000003        6.6972481766926344E-006   2.8391350007610658E-006
 chl          34   2.2611208185715240E-004   8.5796991117856151E-004  0.26354313701578486     
 chl2c          35   2.5740370148566064E-002   2.5740370148566064E-002  0.49574644999999995        6.6972481766926344E-006   1.2256284300729026E-016
 chl          35   2.1980194778441219E-005   8.5391914147224047E-004   2.5740370148566064E-002
 chl2c          36   3.7770393924465726E-002   3.7770393924465726E-002  0.69587337500000002        3.2445965897821113E-006   1.2820336071662119E-016
 chl          36   3.2251951442866496E-005   8.5389502443010889E-004   3.7770393924465726E-002
 chl2c          37   2.1353674699533250E-002   2.1353674699533250E-002  0.33194060000000003        3.2445965897821113E-006   1.1231939491536235E-016
 chl          37   1.8234311566702260E-005   8.5391914147220881E-004   2.1353674699533250E-002
 chl2c          38   2.1543295686358745E-002   2.1543295686358745E-002  0.38455722500000000        3.2445965897821113E-006   1.7252400128225796E-016
 chl          38   1.8396232556981411E-005   8.5391914147239507E-004   2.1543295686358745E-002
 chl2c          39   2.5670077108751441E-002   2.5670077108751441E-002  0.47091117500000002        6.6972481766926344E-006   1.3926765434898450E-016
 chl          39   2.1920170206232565E-005   8.5391914147229196E-004   2.5670077108751441E-002
 chl2c          40   3.7687445774703773E-002   3.7687445774703773E-002  0.66875547499999999        3.2445965897821113E-006   1.6840456596895129E-016
 chl          40   3.2181122430503766E-005   8.5389502443023325E-004   3.7687445774703773E-002
 chl2c          41   2.5582381488167241E-002   2.5582381488167241E-002  0.44304987499999998        6.6972481766926344E-006   1.0123936467367985E-016
 chl          41   2.1845285237189420E-005   8.5391914147217455E-004   2.5582381488167241E-002
 chl2c          42   3.7949995630725070E-002   3.7949995630725070E-002  0.76234377499999995        3.2445965897821113E-006   1.4224837702450047E-016
 chl          42   3.2405312443706391E-005   8.5389502436386078E-004   3.7949995630725070E-002
 chl2c          43   2.1185090152268007E-002   2.1185090152268007E-002  0.29539925000000000        3.2445965897821113E-006   1.7179532798563468E-016
 chl          43   1.8090353994839939E-005   8.5391914147239280E-004   2.1185090152268007E-002
 chl2c          44   3.7536352708156646E-002   3.7536352708156646E-002  0.62417262500000004        3.2445965897821113E-006   1.2165712842380100E-016
 chl          44   3.2052104810259502E-005   8.5389502436379714E-004   3.7536352708156646E-002
 chl2c          45  0.34505577704311152        4.6544927192009838E-002  0.37662252499999999        8.5824188797503879E-007   1.7666294359793006E-006
 chl          45   2.9493993555705314E-004   8.5476017264363364E-004  0.34505577704311152     
 chl2c          46  0.42472961271732768        3.7083195475449568E-002  0.51876034999999998        3.2445965897821113E-006   3.8013703816071487E-006
 chl          46   3.6418550913196120E-004   8.5745259625760848E-004  0.42472961271732768     
 chl2c          47   3.7519784612651236E-002   3.7519784612651236E-002  0.61962282499999999        3.2445965897821113E-006   1.5508703351052465E-016
 chl          47   3.2037957395948129E-005   8.5389502436390057E-004   3.7519784612651236E-002
 chl2c          48   3.7823212136301673E-002   3.7823212136301673E-002  0.71424949999999998        3.2445965897821113E-006   1.4919659998195879E-016
 chl          48   3.2297052648647607E-005   8.5389502436388235E-004   3.7823212136301673E-002
 chl2c          49   3.7152990741888416E-002   3.7152990741888416E-002  0.53276120000000005        3.2445965897821113E-006   1.3892190379573234E-016
 chl          49   3.1724753934734721E-005   8.5389502436385059E-004   3.7152990741888416E-002
 chl2c          50  0.27517104641283990        2.1533072915600981E-002  0.38132569999999999        3.2445965897821113E-006   1.6035794637273755E-006
 chl          50   2.3555408265396461E-004   8.5602786239567569E-004  0.27517104641283990     
 chl2c          51   2.0700971146093840E-002   2.0700971146093840E-002  0.22275920000000002        3.2445965897821113E-006   1.8319965026809824E-016
 chl          51   1.7676955508717956E-005   8.5391914147242803E-004   2.0700971146093840E-002
 chl2c          52   3.7581825176985564E-002   3.7581825176985564E-002  0.63698869999999996        3.2445965897821113E-006   1.6496523368290449E-016
 chl          52   3.2090933527634446E-005   8.5389502443022262E-004   3.7581825176985564E-002
 chl2c          53   3.7925801262726190E-002   3.7925801262726190E-002  0.75269794999999995        3.2445965897821113E-006   1.4786451482500689E-016
 chl          53   3.2384652995769341E-005   8.5389502443016972E-004   3.7925801262726190E-002
 chl2c          54   3.7082433371327092E-002   3.7082433371327092E-002  0.51861124999999997        3.2445965897821113E-006   1.2146294996814404E-016
 chl          54   3.1664505347078210E-005   8.5389502436379659E-004   3.7082433371327092E-002
 chl2c          55  0.46295998202614880        3.7357235588660491E-002  0.57808280000000001        3.2445965897821113E-006   3.7714017676150765E-006
 chl          55   3.9708488624604982E-004   8.5770887692755650E-004  0.46295998202614880     
 chl2c          56   3.7507394187257688E-002   3.7507394187257688E-002  0.61626080000000005        3.2445965897821113E-006   1.6539744984080309E-016
 chl          56   3.2027377275842440E-005   8.5389502443022393E-004   3.7507394187257688E-002
 chl2c          57  0.53165901574982066        3.7727617852646313E-002  0.68163462500000005        3.2445965897821113E-006   3.9200797553724399E-006
 chl          57   4.5626513061330985E-004   8.5819127880267453E-004  0.53165901574982066     
 chl2c          58  0.25608639104875985        3.7765358178394853E-002  0.69416802499999997        3.2445965897821113E-006   6.5830441902503676E-007
 chl          58   2.1904407010070492E-004   8.5535224735545619E-004  0.25608639104875985     
 chl2c          59   3.7173699120809672E-002   3.7173699120809672E-002  0.53705127500000005        3.2445965897821113E-006   1.6822162898905508E-016
 chl          59   3.1742436716461587E-005   8.5389502436394101E-004   3.7173699120809672E-002
 chl2c          60  0.10289199304593780        3.7607757740906807E-002  0.64452155000000000        3.2445965897821113E-006   1.9863115974738701E-007
 chl          60   8.7910362923808685E-005   8.5439459691056510E-004  0.10289199304593780     
 chl2c          61   3.7805373434125003E-002   3.7805373434125003E-002  0.70794139999999994        3.2445965897821113E-006   1.4473837313385162E-016
 chl          61   3.2281820269617317E-005   8.5389502436386848E-004   3.7805373434125003E-002
 chl2c          62   3.7956103087269030E-002   3.7956103087269030E-002  0.76481592499999995        3.2445965897821113E-006   1.1829139954051832E-016
 chl          62   3.2410527570457992E-005   8.5389502436378673E-004   3.7956103087269030E-002
 chl2c          63  0.43444992957157841        3.7855601011927406E-002  0.72597904999999996        3.2445965897821113E-006   1.7551433331395964E-006
 chl          63   3.7227234630185193E-004   8.5688205006491478E-004  0.43444992957157841     
 chl2c          64   2.5708982294816416E-002   2.5708982294816416E-002  0.48435739999999999        6.6972481766926344E-006   9.8524620341163301E-017
 chl          64   2.1953392089312754E-005   8.5391914147216609E-004   2.5708982294816416E-002
 chl2c          65   3.7953597170552002E-002   3.7953597170552002E-002  0.76379975000000000        3.2445965897821113E-006   1.3061619283557740E-016
 chl          65   3.2408387783159295E-005   8.5389502443011637E-004   3.7953597170552002E-002
 chl2c          66   3.1840477731474713E-002   3.1840477731474713E-002  0.35213202499999996        1.8154872786043115E-006   7.5205815082689492E-017
 chl          66   2.7189193408522288E-005   8.5391914147209627E-004   3.1840477731474713E-002
 chl2c          67   3.7937587124568600E-002   3.7937587124568600E-002  0.75736760000000003        3.2445965897821113E-006   1.3813765540375116E-016
 chl          67   3.2394716882039112E-005   8.5389502436384809E-004   3.7937587124568600E-002
 chl2c          68  0.16646017451363007        3.7855407263856986E-002  0.72590779999999999        3.2445965897821113E-006   3.5039918345261509E-007
 chl          68   1.4228115345694600E-004   8.5474591068205176E-004  0.16646017451363007     
 chl2c          69  0.36414009421591897        2.1732330561541505E-002  0.45524217500000003        3.2445965897821113E-006   2.9519799616491427E-006
 chl          69   3.1203758576253378E-004   8.5691630973629975E-004  0.36414009421591897     
 chl2c          70   3.2658010878182209E-002   3.2658010878182209E-002  0.48694062500000002        1.8154872786043115E-006   9.5554003998920598E-017
 chl          70   2.7887300611285721E-005   8.5391914147215720E-004   3.2658010878182209E-002
 chl2c          71   4.3481058864416305E-002   4.3481058864416305E-002  0.23986107500000001        8.5824188797503879E-007   8.2768496126769350E-017
 chl          71   3.7129308455801072E-005   8.5391914147211968E-004   4.3481058864416305E-002
 chl2c          72   3.7549776402781669E-002   3.7549776402781669E-002  0.62790522500000001        3.2445965897821113E-006   1.6591479323150945E-016
 chl          72   3.2063567238802758E-005   8.5389502443022555E-004   3.7549776402781669E-002
 chl2c          73   3.1852614277819484E-002   3.1852614277819484E-002  0.35362212500000001        1.8154872786043115E-006   9.1268354609430703E-017
 chl          73   2.7199557037759037E-005   8.5391914147214614E-004   3.1852614277819484E-002
 chl2c          74  0.10512794634876294        3.7616827685877569E-002  0.64719590000000005        3.2445965897821113E-006   2.0362491526924632E-007
 chl          74   8.9822004546166403E-005   8.5440653666134659E-004  0.10512794634876294     
 chl2c          75   3.7826830779512356E-002   3.7826830779512356E-002  0.71554212500000003        3.2445965897821113E-006   1.3105682944932500E-016
 chl          75   3.2300142592585633E-005   8.5389502443011778E-004   3.7826830779512356E-002
 chl2c          76  0.44286733742327700        3.7257729557919804E-002  0.55513977500000000        3.2445965897821113E-006   3.5524956605257315E-006
 chl          76   3.7977330837656015E-004   8.5753289142113053E-004  0.44286733742327700     
 chl2c          77   3.7138172437479272E-002   3.7138172437479272E-002  0.52973029999999999        3.2445965897821113E-006   1.1526372343985824E-016
 chl          77   3.1712100658327529E-005   8.5389502436377740E-004   3.7138172437479272E-002
 chl2c          78  0.41762368480808920        4.7515248899399322E-002  0.45117492500000000        8.5824188797503879E-007   2.4099121385421182E-006
 chl          78   3.5704536103421414E-004   8.5494519114328335E-004  0.41762368480808920     
 prod   3.9516769713473459E-007   8.3690309116811825        10.000000000000000     
 dcdom   6.1251359617024731E-013  -1.9442942398492782E-009
 chl2c           1   3.7477407714772232E-002   3.7477407714772232E-002  0.60826437499999997        2.7462315138853867E-007   1.5086079010096888E-016
 chl           1   3.2254783743276122E-005   8.6064607212847492E-004   3.7477407714772232E-002
 chl2c           2  0.47088313051886893        3.2640259920490348E-002  0.48302390000000001        1.7512993096150428E-007   1.6404610370806003E-006
 chl           2   4.0538835124629975E-004   8.6091075464861085E-004  0.47088313051886893     
 chl2c           3   3.7922212503796585E-002   3.7922212503796585E-002  0.75128689999999998        2.7462315138853867E-007   1.6253534323434583E-016
 chl           3   3.2637603237815256E-005   8.6064607212851156E-004   3.7922212503796585E-002
 chl2c           4  0.74258315241444295        3.7976509103863923E-002  0.77318742499999993        2.7462315138853867E-007   2.5760540041777124E-006
 chl           4   6.3955339749507489E-004   8.6125492534489098E-004  0.74258315241444295     
 chl2c           5  0.45942656228529311        2.5710500362372445E-002  0.48489679999999996        6.7154170336653183E-007   2.9368070422091696E-006
 chl           5   3.9582806498941194E-004   8.6156982961645135E-004  0.45942656228529311     
 chl2c           6   3.1261039902252048E-002   3.1261039902252048E-002  0.29222855000000003        1.7512993096150428E-007   9.9823402264828649E-017
 chl           6   2.6905132068883117E-005   8.6066017486977032E-004   3.1261039902252048E-002
 chl2c           7  0.22608591368973022        4.3064391842467263E-002  0.22770740000000000        8.1546505431695185E-008   1.2945317946270604E-006
 chl           7   1.9459601558832328E-004   8.6071711595167219E-004  0.22608591368973022     
 chl2c           8   4.7969800906495587E-002   4.7969800906495587E-002  0.49578364999999996        8.1546505431695185E-008   6.8419400528943114E-017
 chl           8   4.1285697236648288E-005   8.6066017486968131E-004   4.7969800906495587E-002
 chl2c           9  0.14107243785442455        2.4803669054600401E-002  0.28700202499999999        6.7154170336653183E-007   9.3159418898320039E-008
 chl           9   1.2144161995394971E-004   8.6084583070200951E-004  0.14107243785442455     
 chl2c          10  0.37702943355181029        2.5387016219684602E-002  0.39094662499999999        6.7154170336653183E-007   3.5561831069849175E-006
 chl          10   3.2478038189268993E-004   8.6141917046924548E-004  0.37702943355181029     
 chl2c          11   2.1820572217820047E-002   2.1820572217820047E-002  0.49737575000000001        2.7462315138853867E-007   1.4861719287389002E-016
 chl          11   1.8780097500750739E-005   8.6066017486992081E-004   2.1820572217820047E-002
 chl2c          12   4.5290941298723353E-002   4.5290941298723353E-002  0.30768942500000002        8.1546505431695185E-008   6.7831299044992499E-017
 chl          12   3.8980109458171622E-005   8.6066017486967935E-004   4.5290941298723353E-002
 chl2c          13   3.7935816987997487E-002   3.7935816987997487E-002  0.75666275000000005        2.7462315138853867E-007   1.3546483110156562E-016
 chl          13   3.2649311881163140E-005   8.6064607206147838E-004   3.7935816987997487E-002
 chl2c          14   4.6856526101924839E-002   4.6856526101924839E-002  0.39804095000000000        8.1546505431695185E-008   7.8771334683238058E-017
 chl          14   4.0327545948669501E-005   8.6066017486970440E-004   4.6856526101924839E-002
 chl2c          15  0.25388070885495673        2.0954299823745293E-002  0.25607262500000000        2.7462315138853867E-007   4.0726404551264109E-006
 chl          15   2.1855954299753632E-004   8.6087495179635893E-004  0.25388070885495673     
 chl2c          16   3.7823443882273475E-002   3.7823443882273475E-002  0.71433214999999994        2.7462315138853867E-007   1.6911407644265744E-016
 chl          16   3.2552598411652631E-005   8.6064607212853227E-004   3.7823443882273475E-002
 chl2c          17   3.7542254757581245E-002   3.7542254757581245E-002  0.62580860000000005        2.7462315138853867E-007   1.6903058217549041E-016
 chl          17   3.2310594095960992E-005   8.6064607212853206E-004   3.7542254757581245E-002
 chl2c          18   2.5694475239060960E-002   2.5694475239060960E-002  0.47925950000000000        6.7154170336653183E-007   1.5501422252889374E-016
 chl          18   2.2114211552441576E-005   8.6066017486994097E-004   2.5694475239060960E-002
 chl2c          19  0.58382655486454138        3.7570220750293731E-002  0.63367130000000005        2.7462315138853867E-007   1.0191442379906012E-006
 chl          19   5.0273704774190088E-004   8.6110685365886662E-004  0.58382655486454138     
 chl2c          20   3.7020645196759419E-002   3.7020645196759419E-002  0.50678202500000002        2.7462315138853867E-007   1.4899895087161308E-016
 chl          20   3.1861672873774215E-005   8.6064607206152110E-004   3.7020645196759419E-002
 chl2c          21  0.43237745196338451        3.7838475073783531E-002  0.71973185000000006        2.7462315138853867E-007   1.4870414078391789E-007
 chl          21   3.7223427991543815E-004   8.6090122929666658E-004  0.43237745196338451     
 chl2c          22  0.63119795754504571        3.7613353106285476E-002  0.64616892500000001        2.7462315138853867E-007   3.7408383171052568E-006
 chl          22   5.4357009887116121E-004   8.6117214476627818E-004  0.63119795754504571     
 chl2c          23   3.2286562315070731E-002   3.2286562315070731E-002  0.41564179999999995        1.7512993096150428E-007   8.9990487206974814E-017
 chl          23   2.7787758368031926E-005   8.6066017486975221E-004   3.2286562315070731E-002
 chl2c          24   3.7348402796863071E-002   3.7348402796863071E-002  0.57597492500000003        2.7462315138853867E-007   1.2123742830096013E-016
 chl          24   3.2143756164888470E-005   8.6064607206143382E-004   3.7348402796863071E-002
 chl2c          25   4.5426679235459781E-002   4.5426679235459781E-002  0.31406487500000002        8.1546505431695185E-008   7.1315275311215925E-017
 chl          25   3.9096933694540168E-005   8.6066017486969085E-004   4.5426679235459781E-002
 chl2c          26   4.7955660680174553E-002   4.7955660680174553E-002  0.49427735000000000        8.1546505431695185E-008   6.5504761846722268E-017
 chl          26   4.1273527306989668E-005   8.6066017486967166E-004   4.7955660680174553E-002
 chl2c          27   4.5333133499525620E-002   4.5333133499525620E-002  0.30964730000000001        8.1546505431695185E-008   7.8164653957713557E-017
 chl          27   3.9016422605093288E-005   8.6066017486970256E-004   4.5333133499525620E-002
 chl2c          28   3.1209236063453518E-002   3.1209236063453518E-002  0.28776342500000002        1.7512993096150428E-007   7.7732141113431628E-017
 chl          28   2.6860546567921687E-005   8.6066017486970115E-004   3.1209236063453518E-002
 chl2c          29  0.66901461888097202        3.7743217595736761E-002  0.68676297499999994        2.7462315138853867E-007   3.5546062299964469E-006
 chl          29   5.7615684100396957E-004   8.6120216919576269E-004  0.66901461888097202     
 chl2c          30   2.5380056985171612E-002   2.5380056985171612E-002  0.38930277499999999        6.7154170336653183E-007   1.6963526664623642E-016
 chl          30   2.1843604283068033E-005   8.6066017486998694E-004   2.5380056985171612E-002
 chl2c          31  0.62121702693740866        3.7576959810037038E-002  0.63559385000000002        2.7462315138853867E-007   3.7710931503572329E-006
 chl          31   5.3496981285942901E-004   8.6116411763023106E-004  0.62121702693740866     
 chl2c          32  0.24497085031012314        2.0893126428578448E-002  0.24722667500000001        2.7462315138853867E-007   3.6864771200200253E-006
 chl          32   2.1088739223212589E-004   8.6086729080276704E-004  0.24497085031012314     
 chl2c          33  0.56877816648512158        3.7458922634011876E-002  0.60343137499999999        2.7462315138853867E-007   1.3599862052439429E-006
 chl          33   4.8977732787296592E-004   8.6110430521558676E-004  0.56877816648512158     
 chl2c          34  0.36581980517228146        2.5350269098008315E-002  0.38241020000000003        6.7154170336653183E-007   2.8312808551997723E-006
 chl          34   3.1511388031658921E-004   8.6139097955122341E-004  0.36581980517228146     
 chl2c          35   2.5740370148566064E-002   2.5740370148566064E-002  0.49574644999999995        6.7154170336653183E-007   1.2318684325972449E-016
 chl          35   2.2153711473279298E-005   8.6066017486984079E-004   2.5740370148566064E-002
 chl2c          36   3.7770393924465726E-002   3.7770393924465726E-002  0.69587337500000002        2.7462315138853867E-007   1.2910913914059784E-016
 chl          36   3.2506941173834049E-005   8.6064607212840640E-004   3.7770393924465726E-002
 chl2c          37   2.1353674699533250E-002   2.1353674699533250E-002  0.33194060000000003        2.7462315138853867E-007   1.1293595204557969E-016
 chl          37   1.8378257401013291E-005   8.6066017486980837E-004   2.1353674699533250E-002
 chl2c          38   2.1543295686358745E-002   2.1543295686358745E-002  0.38455722500000000        2.7462315138853867E-007   1.7308356865001483E-016
 chl          38   1.8541456632697587E-005   8.6066017486999789E-004   2.1543295686358745E-002
 chl2c          39   2.5670077108751441E-002   2.5670077108751441E-002  0.47091117500000002        6.7154170336653183E-007   1.3988822943940807E-016
 chl          39   2.2093213053341662E-005   8.6066017486989338E-004   2.5670077108751441E-002
 chl2c          40   3.7687445774703773E-002   3.7687445774703773E-002  0.66875547499999999        2.7462315138853867E-007   1.6943643992810489E-016
 chl          40   3.2435552174555893E-005   8.6064607212853336E-004   3.7687445774703773E-002
 chl2c          41   2.5582381488167241E-002   2.5582381488167241E-002  0.44304987499999998        6.7154170336653183E-007   1.0183941680815946E-016
 chl          41   2.2017736925191275E-005   8.6066017486977357E-004   2.5582381488167241E-002
 chl2c          42   3.7949995630725070E-002   3.7949995630725070E-002  0.76234377499999995        2.7462315138853867E-007   1.4320627513344395E-016
 chl          42   3.2661514674334731E-005   8.6064607206150288E-004   3.7949995630725070E-002
 chl2c          43   2.1185090152268007E-002   2.1185090152268007E-002  0.29539925000000000        2.7462315138853867E-007   1.7235696643854260E-016
 chl          43   1.8233163395087604E-005   8.6066017486999562E-004   2.1185090152268007E-002
 chl2c          44   3.7536352708156646E-002   3.7536352708156646E-002  0.62417262500000004        2.7462315138853867E-007   1.2253559261493656E-016
 chl          44   3.2305514517787733E-005   8.6064607206143783E-004   3.7536352708156646E-002
 chl2c          45  0.37306805899053275        4.6544927192009838E-002  0.37662252499999999        8.1546505431695185E-008   1.6117413636022531E-006
 chl          45   3.2111979961748721E-004   8.6075393451369203E-004  0.37306805899053275     
 chl2c          46  0.50922807277790638        3.7083195475449568E-002  0.51876034999999998        2.7462315138853867E-007   3.8053061123078439E-006
 chl          46   4.3848231582156760E-004   8.6107255130218701E-004  0.50922807277790638     
 chl2c          47   3.7519784612651236E-002   3.7519784612651236E-002  0.61962282499999999        2.7462315138853867E-007   1.5608495074924393E-016
 chl          47   3.2291255251473427E-005   8.6064607206154343E-004   3.7519784612651236E-002
 chl2c          48   3.7823212136301673E-002   3.7823212136301673E-002  0.71424949999999998        2.7462315138853867E-007   1.5017705179929227E-016
 chl          48   3.2552398957857828E-005   8.6064607206152478E-004   3.7823212136301673E-002
 chl2c          49   3.7152990741888416E-002   3.7152990741888416E-002  0.53276120000000005        2.7462315138853867E-007   1.3986825094800897E-016
 chl          49   3.1975575547343249E-005   8.6064607206149226E-004   3.7152990741888416E-002
 chl2c          50  0.37002526006353798        2.1533072915600981E-002  0.38132569999999999        2.7462315138853867E-007   1.7145069433659449E-006
 chl          50   3.1857937883505603E-004   8.6096656963460274E-004  0.37002526006353798     
 chl2c          51   2.0700971146093840E-002   2.0700971146093840E-002  0.22275920000000002        2.7462315138853867E-007   1.8372528291643232E-016
 chl          51   1.7816501446576597E-005   8.6066017487003140E-004   2.0700971146093840E-002
 chl2c          52   3.7581825176985564E-002   3.7581825176985564E-002  0.63698869999999996        2.7462315138853867E-007   1.6598906727002282E-016
 chl          52   3.2344650221993436E-005   8.6064607212852241E-004   3.7581825176985564E-002
 chl2c          53   3.7925801262726190E-002   3.7925801262726190E-002  0.75269794999999995        2.7462315138853867E-007   1.4884080696725440E-016
 chl          53   3.2640691889090209E-005   8.6064607212846863E-004   3.7925801262726190E-002
 chl2c          54   3.7082433371327092E-002   3.7082433371327092E-002  0.51861124999999997        2.7462315138853867E-007   1.2234057433985733E-016
 chl          54   3.1914850623512626E-005   8.6064607206143729E-004   3.7082433371327092E-002
 chl2c          55  0.56626486049010505        3.7357235588660491E-002  0.57808280000000001        2.7462315138853867E-007   3.8034266768860317E-006
 chl          55   4.8762161478696015E-004   8.6111932561897138E-004  0.56626486049010505     
 chl2c          56   3.7507394187257688E-002   3.7507394187257688E-002  0.61626080000000005        2.7462315138853867E-007   1.6642232161024162E-016
 chl          56   3.2280591483039552E-005   8.6064607212852382E-004   3.7507394187257688E-002
 chl2c          57  0.66566581494480470        3.7727617852646313E-002  0.68163462500000005        2.7462315138853867E-007   3.9015977612956711E-006
 chl          57   5.7327189165237952E-004   8.6120073884207759E-004  0.66566581494480470     
 chl2c          58  0.61559668470915763        3.7765358178394853E-002  0.69416802499999997        2.7462315138853867E-007   7.4679923909446703E-007
 chl          58   5.3010027356256294E-004   8.6111619300388532E-004  0.61559668470915763     
 chl2c          59   3.7173699120809672E-002   3.7173699120809672E-002  0.53705127500000005        2.7462315138853867E-007   1.6925308798988245E-016
 chl          59   3.1993398132324035E-005   8.6064607206158485E-004   3.7173699120809672E-002
 chl2c          60  0.47682809397479947        3.7607757740906807E-002  0.64452155000000000        2.7462315138853867E-007   2.5164616359866935E-007
 chl          60   4.1053183324995949E-004   8.6096402128448457E-004  0.47682809397479947     
 chl2c          61   3.7805373434125003E-002   3.7805373434125003E-002  0.70794139999999994        2.7462315138853867E-007   1.4570459772834399E-016
 chl          61   3.2537046148898271E-005   8.6064607206151069E-004   3.7805373434125003E-002
 chl2c          62   3.7956103087269030E-002   3.7956103087269030E-002  0.76481592499999995        2.7462315138853867E-007   1.1915506449444680E-016
 chl          62   3.2666771032816704E-005   8.6064607206142721E-004   3.7956103087269030E-002
 chl2c          63  0.68846803689784863        3.7855601011927406E-002  0.72597904999999996        2.7462315138853867E-007   1.8296003200632106E-006
 chl          63   5.9291133917705949E-004   8.6120387207610138E-004  0.68846803689784863     
 chl2c          64   2.5708982294816416E-002   2.5708982294816416E-002  0.48435739999999999        6.7154170336653183E-007   9.9119260281535539E-017
 chl          64   2.2126697197580391E-005   8.6066017486976501E-004   2.5708982294816416E-002
 chl2c          65   3.7953597170552002E-002   3.7953597170552002E-002  0.76379975000000000        2.7462315138853867E-007   1.3153155176770745E-016
 chl          65   3.2664614327979672E-005   8.6064607212841409E-004   3.7953597170552002E-002
 chl2c          66   3.1840477731474713E-002   3.1840477731474713E-002  0.35213202499999996        1.7512993096150428E-007   7.0946503341661264E-017
 chl          66   2.7403831132305487E-005   8.6066017486968965E-004   3.1840477731474713E-002
 chl2c          67   3.7937587124568600E-002   3.7937587124568600E-002  0.75736760000000003        2.7462315138853867E-007   1.3908120789656106E-016
 chl          67   3.2650835342250511E-005   8.6064607206148976E-004   3.7937587124568600E-002
 chl2c          68  0.58887213706359198        3.7855407263856986E-002  0.72590779999999999        2.7462315138853867E-007   4.2832755538591721E-007
 chl          68   5.0705727112876342E-004   8.6106514337255281E-004  0.58887213706359198     
 chl2c          69  0.44580467720463840        2.1732330561541505E-002  0.45524217500000003        2.7462315138853867E-007   2.9528228835797382E-006
 chl          69   3.8385238533634916E-004   8.6103265614718711E-004  0.44580467720463840     
 chl2c          70   3.2658010878182209E-002   3.2658010878182209E-002  0.48694062500000002        1.7512993096150428E-007   9.3683882549228475E-017
 chl          70   2.8107449353314534E-005   8.6066017486975113E-004   3.2658010878182209E-002
 chl2c          71   4.3481058864416305E-002   4.3481058864416305E-002  0.23986107500000001        8.1546505431695185E-008   7.8151199874661333E-017
 chl          71   3.7422415725768841E-005   8.6066017486971340E-004   4.3481058864416305E-002
 chl2c          72   3.7549776402781669E-002   3.7549776402781669E-002  0.62790522500000001        2.7462315138853867E-007   1.6694089715418820E-016
 chl          72   3.2317067570358436E-005   8.6064607212852544E-004   3.7549776402781669E-002
 chl2c          73   3.1852614277819484E-002   3.1852614277819484E-002  0.35362212500000001        1.7512993096150428E-007   8.6264219082275708E-017
 chl          73   2.7414276574406493E-005   8.6066017486973996E-004   3.1852614277819484E-002
 chl2c          74  0.48496305178550037        3.7616827685877569E-002  0.64719590000000005        2.7462315138853867E-007   2.6565180265920278E-007
 chl          74   4.1753972409068810E-004   8.6097223809818472E-004  0.48496305178550037     
 chl2c          75   3.7826830779512356E-002   3.7826830779512356E-002  0.71554212500000003        2.7462315138853867E-007   1.3197390977998427E-016
 chl          75   3.2555513331453553E-005   8.6064607212841540E-004   3.7826830779512356E-002
 chl2c          76  0.54351137456851262        3.7257729557919804E-002  0.55513977500000000        2.7462315138853867E-007   3.5628550558034056E-006
 chl          76   4.6801768736751944E-004   8.6110007861210495E-004  0.54351137456851262     
 chl2c          77   3.7138172437479272E-002   3.7138172437479272E-002  0.52973029999999999        2.7462315138853867E-007   1.1611363467251979E-016
 chl          77   3.1962822231856138E-005   8.6064607206141766E-004   3.7138172437479272E-002
 chl2c          78  0.44765972081194577        4.7515248899399322E-002  0.45117492500000000        8.1546505431695185E-008   2.3427059270984426E-006
 chl          78   3.8533329864726308E-004   8.6077277166764579E-004  0.44765972081194577     
 prod   3.6948063976962328E-007  0.80287916197716636        10.000000000000000     
 dcdom   6.5314008760460425E-013  -4.5415237809662978E-010
 chl2c           1   3.7477407714772232E-002   3.7477407714772232E-002  0.60826437499999997        2.7382458561952485E-008   1.4651856517302927E-016
 chl           1   3.2567065930645026E-005   8.6897861715788509E-004   3.7477407714772232E-002
 chl2c           2  0.48163697959303575        3.2640259920490348E-002  0.48302390000000001        1.9205181050516599E-008   1.6107395261988019E-006
 chl           2   4.1854067918986604E-004   8.6899614631649833E-004  0.48163697959303575     
 chl2c           3   3.7922212503796585E-002   3.7922212503796585E-002  0.75128689999999998        2.7382458561952485E-008   1.5790701335562135E-016
 chl           3   3.2953591781116617E-005   8.6897861715788509E-004   3.7922212503796585E-002
 chl2c           4  0.77013615125265511        3.7976509103863923E-002  0.77318742499999993        2.7382458561952485E-008   2.6718591701792793E-006
 chl           4   6.6923201642135274E-004   8.6897883618737017E-004  0.77013615125265511     
 chl2c           5  0.48191514676563929        2.5710500362372445E-002  0.48489679999999996        7.2079286338339765E-008   2.8245108233622288E-006
 chl           5   4.1878251965119320E-004   8.6899638341280815E-004  0.48191514676563929     
 chl2c           6   3.1261039902252048E-002   3.1261039902252048E-002  0.29222855000000003        1.9205181050516599E-008   9.9525006092703242E-017
 chl           6   2.7165720386913494E-005   8.6899605617266984E-004   3.1261039902252048E-002
 chl2c           7  0.22753525649226303        4.3064391842467263E-002  0.22770740000000000        8.9072273347733739E-009   1.3404411053797118E-006
 chl           7   1.9772724519285555E-004   8.6899607665671345E-004  0.22753525649226303     
 chl2c           8   4.7969800906495587E-002   4.7969800906495587E-002  0.49578364999999996        8.9072273347733739E-009   6.7961238243635742E-017
 chl           8   4.1685567803132825E-005   8.6899605617266973E-004   4.7969800906495587E-002
 chl2c           9  0.27569653699962460        2.4803669054600401E-002  0.28700202499999999        7.2079286338339765E-008   2.5223621506953190E-007
 chl           9   2.3957922176636240E-004   8.6899612296069070E-004  0.27569653699962460     
 chl2c          10  0.38934514469426384        2.5387016219684602E-002  0.39094662499999999        7.2079286338339765E-008   3.4253985658342369E-006
 chl          10   3.3833950153681561E-004   8.6899632921453077E-004  0.38934514469426384     
 chl2c          11   2.1820572217820047E-002   2.1820572217820047E-002  0.49737575000000001        2.7382458561952485E-008   1.4475822923233165E-016
 chl          11   1.8961991200716547E-005   8.6899605617266984E-004   2.1820572217820047E-002
 chl2c          12   4.5290941298723353E-002   4.5290941298723353E-002  0.30768942500000002        8.9072273347733739E-009   6.7376525243887449E-017
 chl          12   3.9357649368938487E-005   8.6899605617266973E-004   4.5290941298723353E-002
 chl2c          13   3.7935816987997487E-002   3.7935816987997487E-002  0.75666275000000005        2.7382458561952485E-008   1.3151058387387609E-016
 chl          13   3.2965413784423121E-005   8.6897861709036217E-004   3.7935816987997487E-002
 chl2c          14   4.6856526101924839E-002   4.6856526101924839E-002  0.39804095000000000        8.9072273347733739E-009   7.8510941623239426E-017
 chl          14   4.0718136388524449E-005   8.6899605617266984E-004   4.6856526101924839E-002
 chl2c          15  0.25584431220199266        2.0954299823745293E-002  0.25607262500000000        2.7382458561952485E-008   3.9287202637715976E-006
 chl          15   2.2232771806531462E-004   8.6899613343674323E-004  0.25584431220199266     
 chl2c          16   3.7823443882273475E-002   3.7823443882273475E-002  0.71433214999999994        2.7382458561952485E-008   1.6432757710754650E-016
 chl          16   3.2867763960966871E-005   8.6897861715788509E-004   3.7823443882273475E-002
 chl2c          17   3.7542254757581245E-002   3.7542254757581245E-002  0.62580860000000005        2.7382458561952485E-008   1.6424607651660471E-016
 chl          17   3.2623416624231983E-005   8.6897861715788509E-004   3.7542254757581245E-002
 chl2c          18   2.5694475239060960E-002   2.5694475239060960E-002  0.47925950000000000        7.2079286338339765E-008   1.5103279112348969E-016
 chl          18   2.2328397648170292E-005   8.6899605617266984E-004   2.5694475239060960E-002
 chl2c          19  0.62887396727906830        3.7570220750293731E-002  0.63367130000000005        2.7382458561952485E-008   1.1372874797895011E-006
 chl          19   5.4647813469617932E-004   8.6897878291990877E-004  0.62887396727906830     
 chl2c          20   3.7020645196759419E-002   3.7020645196759419E-002  0.50678202500000002        2.7382458561952485E-008   1.4470299711255190E-016
 chl          20   3.2170149066872959E-005   8.6897861709036228E-004   3.7020645196759419E-002
 chl2c          21  0.69378087490771279        3.7838475073783531E-002  0.71973185000000006        2.7382458561952485E-008   2.6344005482467950E-007
 chl          21   6.0288080892355821E-004   8.6897870888088949E-004  0.69378087490771279     
 chl2c          22  0.64461084247261935        3.7613353106285476E-002  0.64616892500000001        2.7382458561952485E-008   3.6601228351867287E-006
 chl          22   5.6015316048938261E-004   8.6897880640779922E-004  0.64461084247261935     
 chl2c          23   3.2286562315070731E-002   3.2286562315070731E-002  0.41564179999999995        1.9205181050516599E-008   8.9414632606953169E-017
 chl          23   2.8056895319169609E-005   8.6899605617266984E-004   3.2286562315070731E-002
 chl2c          24   3.7348402796863071E-002   3.7348402796863071E-002  0.57597492500000003        2.7382458561952485E-008   1.1765259662186807E-016
 chl          24   3.2454963412951885E-005   8.6897861709036217E-004   3.7348402796863071E-002
 chl2c          25   4.5426679235459781E-002   4.5426679235459781E-002  0.31406487500000002        8.9072273347733739E-009   7.0840566922095925E-017
 chl          25   3.9475605100635455E-005   8.6899605617266973E-004   4.5426679235459781E-002
 chl2c          26   4.7955660680174553E-002   4.7955660680174553E-002  0.49427735000000000        8.9072273347733739E-009   6.5063486453999570E-017
 chl          26   4.1673280002226455E-005   8.6899605617266973E-004   4.7955660680174553E-002
 chl2c          27   4.5333133499525620E-002   4.5333133499525620E-002  0.30964730000000001        8.9072273347733739E-009   7.7905553954428896E-017
 chl          27   3.9394314225036910E-005   8.6899605617266984E-004   4.5333133499525620E-002
 chl2c          28   3.1209236063453518E-002   3.1209236063453518E-002  0.28776342500000002        1.9205181050516599E-008   7.7473969718532042E-017
 chl          28   2.7120703055302965E-005   8.6899605617266973E-004   3.1209236063453518E-002
 chl2c          29  0.68487671878681000        3.7743217595736761E-002  0.68676297499999994        2.7382458561952485E-008   3.4139805047783986E-006
 chl          29   5.9514336097899031E-004   8.6897881714131963E-004  0.68487671878681000     
 chl2c          30   2.5380056985171612E-002   2.5380056985171612E-002  0.38930277499999999        7.2079286338339765E-008   1.6538656635710418E-016
 chl          30   2.2055169425551752E-005   8.6899605617266984E-004   2.5380056985171612E-002
 chl2c          31  0.63406275491573405        3.7576959810037038E-002  0.63559385000000002        2.7382458561952485E-008   3.6037297161937780E-006
 chl          31   5.5098709408054019E-004   8.6897880345261018E-004  0.63406275491573405     
 chl2c          32  0.24700045022875633        2.0893126428578448E-002  0.24722667500000001        2.7382458561952485E-008   3.6956885005521751E-006
 chl          32   2.1464243552519723E-004   8.6899613068076951E-004  0.24700045022875633     
 chl2c          33  0.60006130183156858        3.7458922634011876E-002  0.60343137499999999        2.7382458561952485E-008   1.4710472434598025E-006
 chl          33   5.2144053915230513E-004   8.6897878193563035E-004  0.60006130183156858     
 chl2c          34  0.38046838255445531        2.5350269098008315E-002  0.38241020000000003        7.2079286338339765E-008   2.7003504083924241E-006
 chl          34   3.3062562396351803E-004   8.6899631907310087E-004  0.38046838255445531     
 chl2c          35   2.5740370148566064E-002   2.5740370148566064E-002  0.49574644999999995        7.2079286338339765E-008   1.1984868486805156E-016
 chl          35   2.2368280143528631E-005   8.6899605617266984E-004   2.5740370148566064E-002
 chl2c          36   3.7770393924465726E-002   3.7770393924465726E-002  0.69587337500000002        2.7382458561952485E-008   1.2531862003019706E-016
 chl          36   3.2821664681990813E-005   8.6897861715788509E-004   3.7770393924465726E-002
 chl2c          37   2.1353674699533250E-002   2.1353674699533250E-002  0.33194060000000003        2.7382458561952485E-008   1.0982333737859218E-016
 chl          37   1.8556259098688515E-005   8.6899605617266984E-004   2.1353674699533250E-002
 chl2c          38   2.1543295686358745E-002   2.1543295686358745E-002  0.38455722500000000        2.7382458561952485E-008   1.6877437098173472E-016
 chl          38   1.8721038988407438E-005   8.6899605617266984E-004   2.1543295686358745E-002
 chl2c          39   2.5670077108751441E-002   2.5670077108751441E-002  0.47091117500000002        7.2079286338339765E-008   1.3620187806680147E-016
 chl          39   2.2307195769153335E-005   8.6899605617266984E-004   2.5670077108751441E-002
 chl2c          40   3.7687445774703773E-002   3.7687445774703773E-002  0.66875547499999999        2.7382458561952485E-008   1.6464224650669410E-016
 chl          40   3.2749584513514861E-005   8.6897861715788509E-004   3.7687445774703773E-002
 chl2c          41   2.5582381488167241E-002   2.5582381488167241E-002  0.44304987499999998        7.2079286338339765E-008   9.8981248799249725E-017
 chl          41   2.2230988620722049E-005   8.6899605617266984E-004   2.5582381488167241E-002
 chl2c          42   3.7949995630725070E-002   3.7949995630725070E-002  0.76234377499999995        2.7382458561952485E-008   1.3905542014282654E-016
 chl          42   3.2977734721772760E-005   8.6897861709036217E-004   3.7949995630725070E-002
 chl2c          43   2.1185090152268007E-002   2.1185090152268007E-002  0.29539925000000000        2.7382458561952485E-008   1.6806043645278947E-016
 chl          43   1.8409759791983364E-005   8.6899605617266984E-004   2.1185090152268007E-002
 chl2c          44   3.7536352708156646E-002   3.7536352708156646E-002  0.62417262500000004        2.7382458561952485E-008   1.1891661800867917E-016
 chl          44   3.2618287866950036E-005   8.6897861709036217E-004   3.7536352708156646E-002
 chl2c          45  0.37619348251102341        4.6544927192009838E-002  0.37662252499999999        8.9072273347733739E-009   1.4707193133290863E-006
 chl          45   3.2691066534864339E-004   8.6899608990186083E-004  0.37619348251102341     
 chl2c          46  0.51775351123689539        3.7083195475449568E-002  0.51876034999999998        2.7382458561952485E-008   3.6523496188539654E-006
 chl          46   4.4991680962313857E-004   8.6897877051244471E-004  0.51775351123689539     
 chl2c          47   3.7519784612651236E-002   3.7519784612651236E-002  0.61962282499999999        2.7382458561952485E-008   1.5161383952582082E-016
 chl          47   3.2603890546229925E-005   8.6897861709036228E-004   3.7519784612651236E-002
 chl2c          48   3.7823212136301673E-002   3.7823212136301673E-002  0.71424949999999998        2.7382458561952485E-008   1.4585179878386907E-016
 chl          48   3.2867562576118837E-005   8.6897861709036228E-004   3.7823212136301673E-002
 chl2c          49   3.7152990741888416E-002   3.7152990741888416E-002  0.53276120000000005        2.7382458561952485E-008   1.3580179224215510E-016
 chl          49   3.2285154515657227E-005   8.6897861709036217E-004   3.7152990741888416E-002
 chl2c          50  0.38026505511241704        2.1533072915600981E-002  0.38132569999999999        2.7382458561952485E-008   1.8717805663498109E-006
 chl          50   3.3044887510684073E-004   8.6899616639543901E-004  0.38026505511241704     
 chl2c          51   2.0700971146093840E-002   2.0700971146093840E-002  0.22275920000000002        2.7382458561952485E-008   1.7923541393599656E-016
 chl          51   1.7989062284899782E-005   8.6899605617266995E-004   2.0700971146093840E-002
 chl2c          52   3.7581825176985564E-002   3.7581825176985564E-002  0.63698869999999996        2.7382458561952485E-008   1.6127742750807471E-016
 chl          52   3.2657802472566305E-005   8.6897861715788509E-004   3.7581825176985564E-002
 chl2c          53   3.7925801262726190E-002   3.7925801262726190E-002  0.75269794999999995        2.7382458561952485E-008   1.4454879164452627E-016
 chl          53   3.2956710335888574E-005   8.6897861715788509E-004   3.7925801262726190E-002
 chl2c          54   3.7082433371327092E-002   3.7082433371327092E-002  0.51861124999999997        2.7382458561952485E-008   1.1872672329219597E-016
 chl          54   3.2223841669361315E-005   8.6897861709036217E-004   3.7082433371327092E-002
 chl2c          55  0.57685014544897217        3.7357235588660491E-002  0.57808280000000001        2.7382458561952485E-008   3.7038561752959166E-006
 chl          55   5.0127053986862306E-004   8.6897878733908581E-004  0.57685014544897217     
 chl2c          56   3.7507394187257688E-002   3.7507394187257688E-002  0.61626080000000005        2.7382458561952485E-008   1.6170027370608692E-016
 chl          56   3.2593123534038885E-005   8.6897861715788509E-004   3.7507394187257688E-002
 chl2c          57  0.67991745280374360        3.7727617852646313E-002  0.68163462500000005        2.7382458561952485E-008   3.6951870558106795E-006
 chl          57   5.9083386354127996E-004   8.6897881662676281E-004  0.67991745280374360     
 chl2c          58  0.68696183433417668        3.7765358178394853E-002  0.69416802499999997        2.7382458561952485E-008   9.0601191558095460E-007
 chl          58   5.9695526102015800E-004   8.6897878627965452E-004  0.68696183433417668     
 chl2c          59   3.7173699120809672E-002   3.7173699120809672E-002  0.53705127500000005        2.7382458561952485E-008   1.6446327011928589E-016
 chl          59   3.2303149654134407E-005   8.6897861709036228E-004   3.7173699120809672E-002
 chl2c          60  0.62902122266306959        3.7607757740906807E-002  0.64452155000000000        2.7382458561952485E-008   3.5809999505725683E-007
 chl          60   5.4660606413730163E-004   8.6897873146974400E-004  0.62902122266306959     
 chl2c          61   3.7805373434125003E-002   3.7805373434125003E-002  0.70794139999999994        2.7382458561952485E-008   1.4149095185013987E-016
 chl          61   3.2852061125370665E-005   8.6897861709036217E-004   3.7805373434125003E-002
 chl2c          62   3.7956103087269030E-002   3.7956103087269030E-002  0.76481592499999995        2.7382458561952485E-008   1.1562518437823521E-016
 chl          62   3.2983041970914265E-005   8.6897861709036217E-004   3.7956103087269030E-002
 chl2c          63  0.72219133939627611        3.7855601011927406E-002  0.72597904999999996        2.7382458561952485E-008   1.8951431405833851E-006
 chl          63   6.2756897634944000E-004   8.6897881782141450E-004  0.72219133939627611     
 chl2c          64   2.5708982294816416E-002   2.5708982294816416E-002  0.48435739999999999        7.2079286338339765E-008   9.6325115041170696E-017
 chl          64   2.2341004222408459E-005   8.6899605617266984E-004   2.5708982294816416E-002
 chl2c          65   3.7953597170552002E-002   3.7953597170552002E-002  0.76379975000000000        2.7382458561952485E-008   1.2767838255185117E-016
 chl          65   3.2980864385433699E-005   8.6897861715788509E-004   3.7953597170552002E-002
 chl2c          66   3.1840477731474713E-002   3.1840477731474713E-002  0.35213202499999996        1.9205181050516599E-008   7.0473889143593278E-017
 chl          66   2.7669249575305239E-005   8.6899605617266973E-004   3.1840477731474713E-002
 chl2c          67   3.7937587124568600E-002   3.7937587124568600E-002  0.75736760000000003        2.7382458561952485E-008   1.3503473184359477E-016
 chl          67   3.2966951995252753E-005   8.6897861709036217E-004   3.7937587124568600E-002
 chl2c          68  0.71373420462125980        3.7855407263856986E-002  0.72590779999999999        2.7382458561952485E-008   5.8269535200787341E-007
 chl          68   6.2021986975058013E-004   8.6897876791500737E-004  0.71373420462125980     
 chl2c          69  0.45424579065365278        2.1732330561541505E-002  0.45524217500000003        2.7382458561952485E-008   2.8415084287780183E-006
 chl          69   3.9473786147854257E-004   8.6899619016946928E-004  0.45424579065365278     
 chl2c          70   3.2658010878182209E-002   3.2658010878182209E-002  0.48694062500000002        1.9205181050516599E-008   9.3395190407690874E-017
 chl          70   2.8379682655584490E-005   8.6899605617266984E-004   3.2658010878182209E-002
 chl2c          71   4.3481058864416305E-002   4.3481058864416305E-002  0.23986107500000001        8.9072273347733739E-009   7.7638350891733277E-017
 chl          71   3.7784868671389475E-005   8.6899605617266984E-004   4.3481058864416305E-002
 chl2c          72   3.7549776402781669E-002   3.7549776402781669E-002  0.62790522500000001        2.7382458561952485E-008   1.6220640392952949E-016
 chl          72   3.2629952773077003E-005   8.6897861715788509E-004   3.7549776402781669E-002
 chl2c          73   3.1852614277819484E-002   3.1852614277819484E-002  0.35362212500000001        1.9205181050516599E-008   8.5707777475604375E-017
 chl          73   2.7679796186214404E-005   8.6899605617266984E-004   3.1852614277819484E-002
 chl2c          74  0.63291171563557036        3.7616827685877569E-002  0.64719590000000005        2.7382458561952485E-008   3.9261409663789019E-007
 chl          74   5.4998682165617694E-004   8.6897873442566911E-004  0.63291171563557036     
 chl2c          75   3.7826830779512356E-002   3.7826830779512356E-002  0.71554212500000003        2.7382458561952485E-008   1.2810933282631645E-016
 chl          75   3.2870707102245973E-005   8.6897861715788509E-004   3.7826830779512356E-002
 chl2c          76  0.55391223336819928        3.7257729557919804E-002  0.55513977500000000        2.7382458561952485E-008   3.4296477355803580E-006
 chl          76   4.8133797704671695E-004   8.6897878048264657E-004  0.55391223336819928     
 chl2c          77   3.7138172437479272E-002   3.7138172437479272E-002  0.52973029999999999        2.7382458561952485E-008   1.1266442159856461E-016
 chl          77   3.2272277725984143E-005   8.6897861709036217E-004   3.7138172437479272E-002
 chl2c          78  0.45077866094551522        4.7515248899399322E-002  0.45117492500000000        8.9072273347733739E-009   2.2857891462632786E-006
 chl          78   3.9172489682754976E-004   8.6899609667835816E-004  0.45077866094551522     
 prod   3.6665845693267723E-007   8.6267248182044398E-002   10.000000000000000     
 dcdom   7.0593950945770346E-013  -3.1273166691330209E-010
 chl2c           1   3.7477407714772232E-002   3.7477407714772232E-002  0.60826437499999997        2.9409977242657603E-009   1.4345844440324176E-016
 chl           1   3.2898934544150361E-005   8.7783378174213474E-004   3.7477407714772232E-002
 chl2c           2  0.48286221190540096        3.2640259920490348E-002  0.48302390000000001        2.1888311596287435E-009   1.5786871115712174E-006
 chl           2   4.2388170785904219E-004   8.7785230943291574E-004  0.48286221190540096     
 chl2c           3   3.7922212503796585E-002   3.7922212503796585E-002  0.75128689999999998        2.9409977242657603E-009   1.5464480468687271E-016
 chl           3   3.3289399214236625E-005   8.7783378174213474E-004   3.7922212503796585E-002
 chl2c           4  0.77287719833910307        3.7976509103863923E-002  0.77318742499999993        2.9409977242657603E-009   2.8325713053560052E-006
 chl           4   6.7845771390117877E-004   8.7783378182092859E-004  0.77287719833910307     
 chl2c           5  0.48455128601844893        2.5710500362372445E-002  0.48489679999999996        7.9983459513637199E-009   2.7195286061356716E-006
 chl           5   4.2536446551131365E-004   8.7785230951820895E-004  0.48455128601844893     
 chl2c           6   3.1261039902252048E-002   3.1261039902252048E-002  0.29222855000000003        2.1888311596287435E-009   9.9386905784172780E-017
 chl           6   2.7442576072452747E-005   8.7785230940048736E-004   3.1261039902252048E-002
 chl2c           7  0.22768855712000194        4.3064391842467263E-002  0.22770740000000000        1.0156310427569516E-009   1.3972593938142938E-006
 chl           7   1.9987692569353629E-004   8.7785230940785625E-004  0.22768855712000194     
 chl2c           8   4.7969800906495587E-002   4.7969800906495587E-002  0.49578364999999996        1.0156310427569516E-009   6.7858282130788958E-017
 chl           8   4.2110400507248746E-005   8.7785230940048736E-004   4.7969800906495587E-002
 chl2c           9  0.28637575998938331        2.4803669054600401E-002  0.28700202499999999        7.9983459513637199E-009   5.2484764925514113E-007
 chl           9   2.5139562226988033E-004   8.7785230942451361E-004  0.28637575998938331     
 chl2c          10  0.39076183630140432        2.5387016219684602E-002  0.39094662499999999        7.9983459513637199E-009   3.3061639966330809E-006
 chl          10   3.4303118046114531E-004   8.7785230949871174E-004  0.39076183630140432     
 chl2c          11   2.1820572217820047E-002   2.1820572217820047E-002  0.49737575000000001        2.9409977242657603E-009   1.4203606477517117E-016
 chl          11   1.9155239713853441E-005   8.7785230940048736E-004   2.1820572217820047E-002
 chl2c          12   4.5290941298723353E-002   4.5290941298723353E-002  0.30768942500000002        1.0156310427569516E-009   6.7274331596618398E-017
 chl          12   3.9758757414006203E-005   8.7785230940048736E-004   4.5290941298723353E-002
 chl2c          13   3.7935816987997487E-002   3.7935816987997487E-002  0.75666275000000005        2.9409977242657603E-009   1.2872444002294748E-016
 chl          13   3.3301341687469190E-005   8.7783378167406809E-004   3.7935816987997487E-002
 chl2c          14   4.6856526101924839E-002   4.6856526101924839E-002  0.39804095000000000        1.0156310427569516E-009   7.8397785295541987E-017
 chl          14   4.1133109649058937E-005   8.7785230940048736E-004   4.6856526101924839E-002
 chl2c          15  0.25604722187913392        2.0954299823745293E-002  0.25607262500000000        2.9409977242657603E-009   3.7954287216531158E-006
 chl          15   2.2477164504929351E-004   8.7785230942828230E-004  0.25604722187913392     
 chl2c          16   3.7823443882273475E-002   3.7823443882273475E-002  0.71433214999999994        2.9409977242657603E-009   1.6095363046692718E-016
 chl          16   3.3202696781687536E-005   8.7783378174213474E-004   3.7823443882273475E-002
 chl2c          17   3.7542254757581245E-002   3.7542254757581245E-002  0.62580860000000005        2.9409977242657603E-009   1.6087353836489671E-016
 chl          17   3.2955859468974193E-005   8.7783378174213474E-004   3.7542254757581245E-002
 chl2c          18   2.5694475239060960E-002   2.5694475239060960E-002  0.47925950000000000        7.9983459513637199E-009   1.4822409020564258E-016
 chl          18   2.2555954427443305E-005   8.7785230940048736E-004   2.5694475239060960E-002
 chl2c          19  0.63322533397205305        3.7570220750293731E-002  0.63367130000000005        2.9409977242657603E-009   1.3230773512932049E-006
 chl          19   5.5586658965337378E-004   8.7783378180176618E-004  0.63322533397205305     
 chl2c          20   3.7020645196759419E-002   3.7020645196759419E-002  0.50678202500000002        2.9409977242657603E-009   1.4167555577876832E-016
 chl          20   3.2497972973085243E-005   8.7783378167406809E-004   3.7020645196759419E-002
 chl2c          21  0.71805041838332206        3.7838475073783531E-002  0.71973185000000006        2.9409977242657603E-009   4.5197159826778186E-007
 chl          21   6.3032891422578903E-004   8.7783378170708888E-004  0.71805041838332206     
 chl2c          22  0.64599843915872335        3.7613353106285476E-002  0.64616892500000001        2.9409977242657603E-009   3.6004261964160529E-006
 chl          22   5.6707925289019865E-004   8.7783378181021570E-004  0.64599843915872335     
 chl2c          23   3.2286562315070731E-002   3.2286562315070731E-002  0.41564179999999995        2.1888311596287435E-009   8.9285181780038216E-017
 chl          23   2.8342833290887587E-005   8.7785230940048736E-004   3.2286562315070731E-002
 chl2c          24   3.7348402796863071E-002   3.7348402796863071E-002  0.57597492500000003        2.9409977242657603E-009   1.1512724022822023E-016
 chl          24   3.2785689666656654E-005   8.7783378167406809E-004   3.7348402796863071E-002
 chl2c          25   4.5426679235459781E-002   4.5426679235459781E-002  0.31406487500000002        1.0156310427569516E-009   7.0733887396722634E-017
 chl          25   3.9877915275243533E-005   8.7785230940048736E-004   4.5426679235459781E-002
 chl2c          26   4.7955660680174553E-002   4.7955660680174553E-002  0.49427735000000000        1.0156310427569516E-009   6.4964329995642883E-017
 chl          26   4.2097987476917375E-005   8.7785230940048736E-004   4.7955660680174553E-002
 chl2c          27   4.5333133499525620E-002   4.5333133499525620E-002  0.30964730000000001        1.0156310427569516E-009   7.7793148939526338E-017
 chl          27   3.9795795934919164E-005   8.7785230940048736E-004   4.5333133499525620E-002
 chl2c          28   3.1209236063453518E-002   3.1209236063453518E-002  0.28776342500000002        2.1888311596287435E-009   7.7362101444802328E-017
 chl          28   2.7397099952927647E-005   8.7785230940048736E-004   3.1209236063453518E-002
 chl2c          29  0.68655210763090968        3.7743217595736761E-002  0.68676297499999994        2.9409977242657603E-009   3.2880293932071549E-006
 chl          29   6.0267863300735209E-004   8.7783378174603472E-004  0.68655210763090968     
 chl2c          30   2.5380056985171612E-002   2.5380056985171612E-002  0.38930277499999999        7.9983459513637199E-009   1.6238906541009090E-016
 chl          30   2.2279941637148871E-005   8.7785230940048736E-004   2.5380056985171612E-002
 chl2c          31  0.63542085308179774        3.7576959810037038E-002  0.63559385000000002        2.9409977242657603E-009   3.4329499819655787E-006
 chl          31   5.5779389045795694E-004   8.7783378174111028E-004  0.63542085308179774     
 chl2c          32  0.24720255151189507        2.0893126428578448E-002  0.24722667500000001        2.9409977242657603E-009   3.7253996166552200E-006
 chl          32   2.1700733074103592E-004   8.7785230942729090E-004  0.24720255151189507     
 chl2c          33  0.60310634464714941        3.7458922634011876E-002  0.60343137499999999        2.9409977242657603E-009   1.6465031199458885E-006
 chl          33   5.2942712330899622E-004   8.7783378173336972E-004  0.60310634464714941     
 chl2c          34  0.38218124328335717        2.5350269098008315E-002  0.38241020000000003        7.9983459513637199E-009   2.5527932164739652E-006
 chl          34   3.3549868706198976E-004   8.7785230949506340E-004  0.38218124328335717     
 chl2c          35   2.5740370148566064E-002   2.5740370148566064E-002  0.49574644999999995        7.9983459513637199E-009   1.1749459500011354E-016
 chl          35   2.2596243379742085E-005   8.7785230940048736E-004   2.5740370148566064E-002
 chl2c          36   3.7770393924465726E-002   3.7770393924465726E-002  0.69587337500000002        2.9409977242657603E-009   1.2264806972059775E-016
 chl          36   3.3156127736603900E-005   8.7783378174213474E-004   3.7770393924465726E-002
 chl2c          37   2.1353674699533250E-002   2.1353674699533250E-002  0.33194060000000003        2.9409977242657603E-009   1.0762864686267876E-016
 chl          37   1.8745372649172023E-005   8.7785230940048736E-004   2.1353674699533250E-002
 chl2c          38   2.1543295686358745E-002   2.1543295686358745E-002  0.38455722500000000        2.9409977242657603E-009   1.6573414849066437E-016
 chl          38   1.8911831870367582E-005   8.7785230940048736E-004   2.1543295686358745E-002
 chl2c          39   2.5670077108751441E-002   2.5670077108751441E-002  0.47091117500000002        7.9983459513637199E-009   1.3360169832341568E-016
 chl          39   2.2534536472406037E-005   8.7785230940048736E-004   2.5670077108751441E-002
 chl2c          40   3.7687445774703773E-002   3.7687445774703773E-002  0.66875547499999999        2.9409977242657603E-009   1.6126286414583094E-016
 chl          40   3.3083313048609850E-005   8.7783378174213474E-004   3.7687445774703773E-002
 chl2c          41   2.5582381488167241E-002   2.5582381488167241E-002  0.44304987499999998        7.9983459513637199E-009   9.6966359080357830E-017
 chl          41   2.2457552669351888E-005   8.7785230940048736E-004   2.5582381488167241E-002
 chl2c          42   3.7949995630725070E-002   3.7949995630725070E-002  0.76234377499999995        2.9409977242657603E-009   1.3613044879366641E-016
 chl          42   3.3313788179033749E-005   8.7783378167406809E-004   3.7949995630725070E-002
 chl2c          43   2.1185090152268007E-002   2.1185090152268007E-002  0.29539925000000000        2.9409977242657603E-009   1.6502915899803438E-016
 chl          43   1.8597380315025994E-005   8.7785230940048736E-004   2.1185090152268007E-002
 chl2c          44   3.7536352708156646E-002   3.7536352708156646E-002  0.62417262500000004        2.9409977242657603E-009   1.1636716210727965E-016
 chl          44   3.2950678448052798E-005   8.7783378167406809E-004   3.7536352708156646E-002
 chl2c          45  0.37656517792961414        4.6544927192009838E-002  0.37662252499999999        1.0156310427569516E-009   1.2558598671513810E-006
 chl          45   3.3056861108988637E-004   8.7785230941262110E-004  0.37656517792961414     
 chl2c          46  0.51864761759320022        3.7083195475449568E-002  0.51876034999999998        2.9409977242657603E-009   3.5095794266158416E-006
 chl          46   4.5528639953671020E-004   8.7783378172926038E-004  0.51864761759320022     
 chl2c          47   3.7519784612651236E-002   3.7519784612651236E-002  0.61962282499999999        2.9409977242657603E-009   1.4846268589303986E-016
 chl          47   3.2936134414120145E-005   8.7783378167406809E-004   3.7519784612651236E-002
 chl2c          48   3.7823212136301673E-002   3.7823212136301673E-002  0.71424949999999998        2.9409977242657603E-009   1.4280366471124413E-016
 chl          48   3.3202493344670209E-005   8.7783378167406809E-004   3.7823212136301673E-002
 chl2c          49   3.7152990741888416E-002   3.7152990741888416E-002  0.53276120000000005        2.9409977242657603E-009   1.3293641697652630E-016
 chl          49   3.2614150363453550E-005   8.7783378167406809E-004   3.7152990741888416E-002
 chl2c          50  0.38122374596175262        2.1533072915600981E-002  0.38132569999999999        2.9409977242657603E-009   2.0966999325690388E-006
 chl          50   3.3465814580594544E-004   8.7785230944013902E-004  0.38122374596175262     
 chl2c          51   2.0700971146093840E-002   2.0700971146093840E-002  0.22275920000000002        2.9409977242657603E-009   1.7606764893401960E-016
 chl          51   1.8172395327431332E-005   8.7785230940048736E-004   2.0700971146093840E-002
 chl2c          52   3.7581825176985564E-002   3.7581825176985564E-002  0.63698869999999996        2.9409977242657603E-009   1.5795636637345835E-016
 chl          52   3.2990595719885010E-005   8.7783378174213474E-004   3.7581825176985564E-002
 chl2c          53   3.7925801262726190E-002   3.7925801262726190E-002  0.75269794999999995        2.9409977242657603E-009   1.4152413181597242E-016
 chl          53   3.3292549548059557E-005   8.7783378174213474E-004   3.7925801262726190E-002
 chl2c          54   3.7082433371327092E-002   3.7082433371327092E-002  0.51861124999999997        2.9409977242657603E-009   1.1618088386048383E-016
 chl          54   3.2552212720028721E-005   8.7783378167406809E-004   3.7082433371327092E-002
 chl2c          55  0.57794717044560495        3.7357235588660491E-002  0.57808280000000001        2.9409977242657603E-009   3.6223344605547131E-006
 chl          55   5.0734155027548926E-004   8.7783378173531359E-004  0.57794717044560495     
 chl2c          56   3.7507394187257688E-002   3.7507394187257688E-002  0.61626080000000005        2.9409977242657603E-009   1.5837185974954665E-016
 chl          56   3.2925257682693380E-005   8.7783378174213474E-004   3.7507394187257688E-002
 chl2c          57  0.68143734596975558        3.7727617852646313E-002  0.68163462500000005        2.9409977242657603E-009   3.4622732697304234E-006
 chl          57   5.9818872243548539E-004   8.7783378174584954E-004  0.68143734596975558     
 chl2c          58  0.69355723349048215        3.7765358178394853E-002  0.69416802499999997        2.9409977242657603E-009   1.1590938783851352E-006
 chl          58   6.0882796917175873E-004   8.7783378180297474E-004  0.69355723349048215     
 chl2c          59   3.7173699120809672E-002   3.7173699120809672E-002  0.53705127500000005        2.9409977242657603E-009   1.6108697900181155E-016
 chl          59   3.2632328878034332E-005   8.7783378167406809E-004   3.7173699120809672E-002
 chl2c          60  0.64337326587944932        3.7607757740906807E-002  0.64452155000000000        2.9409977242657603E-009   5.3102600219797263E-007
 chl          60   5.6477478704142550E-004   8.7783378171521508E-004  0.64337326587944932     
 chl2c          61   3.7805373434125003E-002   3.7805373434125003E-002  0.70794139999999994        2.9409977242657603E-009   1.3852163843043021E-016
 chl          61   3.3186833929278304E-005   8.7783378167406809E-004   3.7805373434125003E-002
 chl2c          62   3.7956103087269030E-002   3.7956103087269030E-002  0.76481592499999995        2.9409977242657603E-009   1.1313861352557031E-016
 chl          62   3.3319149510708146E-005   8.7783378167406809E-004   3.7956103087269030E-002
 chl2c          63  0.72559313880014698        3.7855601011927406E-002  0.72597904999999996        2.9409977242657603E-009   2.0072181047766285E-006
 chl          63   6.3695016909145693E-004   8.7783378181432157E-004  0.72559313880014698     
 chl2c          64   2.5708982294816416E-002   2.5708982294816416E-002  0.48435739999999999        7.9983459513637199E-009   9.4355460092057317E-017
 chl          64   2.2568689479840834E-005   8.7785230940048736E-004   2.5708982294816416E-002
 chl2c          65   3.7953597170552002E-002   3.7953597170552002E-002  0.76379975000000000        2.9409977242657603E-009   1.2496360259348722E-016
 chl          65   3.3316949734943248E-005   8.7783378174213474E-004   3.7953597170552002E-002
 chl2c          66   3.1840477731474713E-002   3.1840477731474713E-002  0.35213202499999996        2.1888311596287435E-009   7.0367680903758998E-017
 chl          66   2.7951236908989866E-005   8.7785230940048736E-004   3.1840477731474713E-002
 chl2c          67   3.7937587124568600E-002   3.7937587124568600E-002  0.75736760000000003        2.9409977242657603E-009   1.3218346665930657E-016
 chl          67   3.3302895573149488E-005   8.7783378167406809E-004   3.7937587124568600E-002
 chl2c          68  0.72497797008202913        3.7855407263856986E-002  0.72590779999999999        2.9409977242657603E-009   8.3227615058358404E-007
 chl          68   6.3641015319616193E-004   8.7783378179636827E-004  0.72497797008202913     
 chl2c          69  0.45513099628063675        2.1732330561541505E-002  0.45524217500000003        2.9409977242657603E-009   2.7404502915895223E-006
 chl          69   3.9953779618664075E-004   8.7785230944869143E-004  0.45513099628063675     
 chl2c          70   3.2658010878182209E-002   3.2658010878182209E-002  0.48694062500000002        2.1888311596287435E-009   9.3264139366688677E-017
 chl          70   2.8668910269838490E-005   8.7785230940048736E-004   3.2658010878182209E-002
 chl2c          71   4.3481058864416305E-002   4.3481058864416305E-002  0.23986107500000001        1.0156310427569516E-009   7.7523086779473615E-017
 chl          71   3.8169947939306389E-005   8.7785230940048736E-004   4.3481058864416305E-002
 chl2c          72   3.7549776402781669E-002   3.7549776402781669E-002  0.62790522500000001        2.9409977242657603E-009   1.5886919792694264E-016
 chl          72   3.2962462223225407E-005   8.7783378174213474E-004   3.7549776402781669E-002
 chl2c          73   3.1852614277819484E-002   3.1852614277819484E-002  0.35362212500000001        2.1888311596287435E-009   8.5582698567403091E-017
 chl          73   2.7961891004226772E-005   8.7785230940048736E-004   3.1852614277819484E-002
 chl2c          74  0.64616999006204101        3.7616827685877569E-002  0.64719590000000005        2.9409977242657603E-009   5.9942934173322439E-007
 chl          74   5.6722984600773158E-004   8.7783378171627847E-004  0.64616999006204101     
 chl2c          75   3.7826830779512356E-002   3.7826830779512356E-002  0.71554212500000003        2.9409977242657603E-009   1.2538649899145964E-016
 chl          75   3.3205669914499116E-005   8.7783378174213474E-004   3.7826830779512356E-002
 chl2c          76  0.55500289001787217        3.7257729557919804E-002  0.55513977500000000        2.9409977242657603E-009   3.3098360266698058E-006
 chl          76   4.8720028585481180E-004   8.7783378180088939E-004  0.55500289001787217     
 chl2c          77  0.47516441710520496        3.7138172437479272E-002  0.52973029999999999        2.9409977242657603E-009   6.7833188542718454E-009
 chl          77   4.1711537718441632E-004   8.7783378167406809E-004  0.47516441710520496     
 chl2c          78  0.45112779105732309        4.7515248899399322E-002  0.45117492500000000        1.0156310427569516E-009   2.1928894514191248E-006
 chl          78   3.9602357322098518E-004   8.7785230941505882E-004  0.45112779105732309     
 prod   3.6602500535868668E-007   9.7154751152444263E-003   10.000000000000000     
 dcdom   7.6437025166565049E-013  -2.9748205697656192E-010
 chl2c           1   3.7477407714772232E-002   3.7477407714772232E-002  0.60826437499999997        3.2874714992751168E-010   1.4048017675460699E-016
 chl           1   3.2541063287849129E-005   8.6828479534945598E-004   3.7477407714772232E-002
 chl2c           2  0.48300501124859757        3.2640259920490348E-002  0.48302390000000001        2.5394612208865852E-010   1.5682980251452693E-006
 chl           2   4.1937621935175340E-004   8.6826473760104512E-004  0.48300501124859757     
 chl2c           3   3.7922212503796585E-002   3.7922212503796585E-002  0.75128689999999998        3.2874714992751168E-010   1.5147726426740324E-016
 chl           3   3.2927280523057601E-005   8.6828479534945598E-004   3.7922212503796585E-002
 chl2c           4  0.77315436666748705        3.7976509103863923E-002  0.77318742499999993        3.2874714992751168E-010   2.9723644078324626E-006
 chl           4   6.7131818103543909E-004   8.6828479534948428E-004  0.77315436666748705     
 chl2c           5  0.48485591438450687        2.5710500362372445E-002  0.48489679999999996        9.0565292531138250E-010   2.6038938402756527E-006
 chl           5   4.2098329327739346E-004   8.6826473760107570E-004  0.48485591438450687     
 chl2c           6   3.1261039902252048E-002   3.1261039902252048E-002  0.29222855000000003        2.5394612208865852E-010   1.0108687742418946E-016
 chl           6   2.7142858607864310E-005   8.6826473760103341E-004   3.1261039902252048E-002
 chl2c           7  0.22770530768632530        4.3064391842467263E-002  0.22770740000000000        1.1810873807074424E-010   1.4634420797659568E-006
 chl           7   1.9770848922863042E-004   8.6826473760103612E-004  0.22770530768632530     
 chl2c           8   4.7969800906495587E-002   4.7969800906495587E-002  0.49578364999999996        1.1810873807074424E-010   6.9137116109786336E-017
 chl           8   4.1650486596852204E-005   8.6826473760103341E-004   4.7969800906495587E-002
 chl2c           9  0.28695932670345004        2.4803669054600401E-002  0.28700202499999999        9.0565292531138250E-010   8.7342688349970378E-007
 chl           9   2.4915666450234274E-004   8.6826473760104209E-004  0.28695932670345004     
 chl2c          10  0.39092489195702490        2.5387016219684602E-002  0.39094662499999999        9.0565292531138250E-010   3.1843592150358425E-006
 chl          10   3.3942629873679240E-004   8.6826473760106876E-004  0.39092489195702490     
 chl2c          11   2.1820572217820047E-002   2.1820572217820047E-002  0.49737575000000001        3.2874714992751168E-010   1.3944899190427654E-016
 chl          11   1.8946033411009922E-005   8.6826473760103341E-004   2.1820572217820047E-002
 chl2c          12   4.5290941298723353E-002   4.5290941298723353E-002  0.30768942500000002        1.1810873807074424E-010   6.8543721449605841E-017
 chl          12   3.9324527262439836E-005   8.6826473760103341E-004   4.5290941298723353E-002
 chl2c          13   3.7935816987997487E-002   3.7935816987997487E-002  0.75666275000000005        3.2874714992751168E-010   1.2600464594346951E-016
 chl          13   3.2939093087302844E-005   8.6828479528263346E-004   3.7935816987997487E-002
 chl2c          14   4.6856526101924839E-002   4.6856526101924839E-002  0.39804095000000000        1.1810873807074424E-010   7.9792275199943719E-017
 chl          14   4.0683869340783744E-005   8.6826473760103341E-004   4.6856526101924839E-002
 chl2c          15  0.25606967968307892        2.0954299823745293E-002  0.25607262500000000        3.2874714992751168E-010   3.6594960265635340E-006
 chl          15   2.2233627323761177E-004   8.6826473760104350E-004  0.25606967968307892     
 chl2c          16   3.7823443882273475E-002   3.7823443882273475E-002  0.71433214999999994        3.2874714992751168E-010   1.5768197326820820E-016
 chl          16   3.2841521230731454E-005   8.6828479534945598E-004   3.7823443882273475E-002
 chl2c          17   3.7542254757581245E-002   3.7542254757581245E-002  0.62580860000000005        3.2874714992751168E-010   1.5760319113214581E-016
 chl          17   3.2597368989143574E-005   8.6828479534945598E-004   3.7542254757581245E-002
 chl2c          18   2.5694475239060960E-002   2.5694475239060960E-002  0.47925950000000000        9.0565292531138250E-010   1.4556196032663802E-016
 chl          18   2.2309606801239514E-005   8.6826473760103341E-004   2.5694475239060960E-002
 chl2c          19  0.63362776303533452        3.7570220750293731E-002  0.63367130000000005        3.2874714992751168E-010   1.5159053618146554E-006
 chl          19   5.5016935255488262E-004   8.6828479534947745E-004  0.63362776303533452     
 chl2c          20   3.7020645196759419E-002   3.7020645196759419E-002  0.50678202500000002        3.2874714992751168E-010   1.3872800807183447E-016
 chl          20   3.2144463335899259E-005   8.6828479528263346E-004   3.7020645196759419E-002
 chl2c          21  0.71960760176320804        3.7838475073783531E-002  0.71973185000000006        3.2874714992751168E-010   6.8518560543663320E-007
 chl          21   6.2482433918080243E-004   8.6828479528264528E-004  0.71960760176320804     
 chl2c          22  0.64614942224240646        3.7613353106285476E-002  0.64616892500000001        3.2874714992751168E-010   3.5189654814690031E-006
 chl          22   5.6104171885693293E-004   8.6828479534948049E-004  0.64614942224240646     
 chl2c          23   3.2286562315070731E-002   3.2286562315070731E-002  0.41564179999999995        2.5394612208865852E-010   9.0891876457359291E-017
 chl          23   2.8033283556534302E-005   8.6826473760103341E-004   3.2286562315070731E-002
 chl2c          24   3.7348402796863071E-002   3.7348402796863071E-002  0.57597492500000003        3.2874714992751168E-010   1.1265533009086753E-016
 chl          24   3.2429050276607588E-005   8.6828479528263346E-004   3.7348402796863071E-002
 chl2c          25   4.5426679235459781E-002   4.5426679235459781E-002  0.31406487500000002        1.1810873807074424E-010   7.2058833856766759E-017
 chl          25   3.9442383726462802E-005   8.6826473760103341E-004   4.5426679235459781E-002
 chl2c          26   4.7955660680174553E-002   4.7955660680174553E-002  0.49427735000000000        1.1810873807074424E-010   6.6196095685465273E-017
 chl          26   4.1638209136955953E-005   8.6826473760103341E-004   4.7955660680174553E-002
 chl2c          27   4.5333133499525620E-002   4.5333133499525620E-002  0.30964730000000001        1.1810873807074424E-010   7.9178424314374264E-017
 chl          27   3.9361161262598230E-005   8.6826473760103341E-004   4.5333133499525620E-002
 chl2c          28   3.1209236063453518E-002   3.1209236063453518E-002  0.28776342500000002        2.5394612208865852E-010   7.8740793469499826E-017
 chl          28   2.7097879161363178E-005   8.6826473760103341E-004   3.1209236063453518E-002
 chl2c          29  0.68673842794118711        3.7743217595736761E-002  0.68676297499999994        3.2874714992751168E-010   3.1581355097446591E-006
 chl          29   5.9628453531764903E-004   8.6828479528265937E-004  0.68673842794118711     
 chl2c          30   2.5380056985171612E-002   2.5380056985171612E-002  0.38930277499999999        9.0565292531138250E-010   1.5956597929355086E-016
 chl          30   2.2036608518529305E-005   8.6826473760103341E-004   2.5380056985171612E-002
 chl2c          31  0.63557333413768935        3.7576959810037038E-002  0.63559385000000002        3.2874714992751168E-010   3.2365891893624078E-006
 chl          31   5.5185866231885971E-004   8.6828479528265753E-004  0.63557333413768935     
 chl2c          32  0.24722396592577747        2.0893126428578448E-002  0.24722667500000001        3.2874714992751168E-010   3.7084889889168933E-006
 chl          32   2.1465585190323438E-004   8.6826473760104306E-004  0.24722396592577747     
 chl2c          33  0.60339848285112985        3.7458922634011876E-002  0.60343137499999999        3.2874714992751168E-010   1.8195829330420276E-006
 chl          33   5.2392172815625773E-004   8.6828479528265471E-004  0.60339848285112985     
 chl2c          34  0.38238222467038041        2.5350269098008315E-002  0.38241020000000003        9.0565292531138250E-010   2.3669209272434614E-006
 chl          34   3.3200900196674027E-004   8.6826473760106746E-004  0.38238222467038041     
 chl2c          35   2.5740370148566064E-002   2.5740370148566064E-002  0.49574644999999995        9.0565292531138250E-010   1.1523433152368406E-016
 chl          35   2.2349455732798188E-005   8.6826473760103341E-004   2.5740370148566064E-002
 chl2c          36   3.7770393924465726E-002   3.7770393924465726E-002  0.69587337500000002        3.2874714992751168E-010   1.2003793534291909E-016
 chl          36   3.2795458758973057E-005   8.6828479534945598E-004   3.7770393924465726E-002
 chl2c          37   2.1353674699533250E-002   2.1353674699533250E-002  0.33194060000000003        3.2874714992751168E-010   1.0551317419737281E-016
 chl          37   1.8540642759808064E-005   8.6826473760103341E-004   2.1353674699533250E-002
 chl2c          38   2.1543295686358745E-002   2.1543295686358745E-002  0.38455722500000000        3.2874714992751168E-010   1.6287522719904670E-016
 chl          38   1.8705283976177749E-005   8.6826473760103341E-004   2.1543295686358745E-002
 chl2c          39   2.5670077108751441E-002   2.5670077108751441E-002  0.47091117500000002        9.0565292531138250E-010   1.3112165118435950E-016
 chl          39   2.2288422765028366E-005   8.6826473760103341E-004   2.5670077108751441E-002
 chl2c          40   3.7687445774703773E-002   3.7687445774703773E-002  0.66875547499999999        3.2874714992751168E-010   1.5798615204782215E-016
 chl          40   3.2723436141732388E-005   8.6828479534945598E-004   3.7687445774703773E-002
 chl2c          41   2.5582381488167241E-002   2.5582381488167241E-002  0.44304987499999998        9.0565292531138250E-010   9.5016217719175467E-017
 chl          41   2.2212279750033065E-005   8.6826473760103341E-004   2.5582381488167241E-002
 chl2c          42   3.7949995630725070E-002   3.7949995630725070E-002  0.76234377499999995        3.2874714992751168E-010   1.3327942333706635E-016
 chl          42   3.2951404187200951E-005   8.6828479528263346E-004   3.7949995630725070E-002
 chl2c          43   2.1185090152268007E-002   2.1185090152268007E-002  0.29539925000000000        3.2874714992751168E-010   1.6217772169723845E-016
 chl          43   1.8394266742113217E-005   8.6826473760103341E-004   2.1185090152268007E-002
 chl2c          44   3.7536352708156646E-002   3.7536352708156646E-002  0.62417262500000004        3.2874714992751168E-010   1.1387227288665280E-016
 chl          44   3.2592244326858518E-005   8.6828479528263346E-004   3.7536352708156646E-002
 chl2c          45  0.37661422962238317        4.6544927192009838E-002  0.37662252499999999        1.1810873807074424E-010   1.0097616879814108E-006
 chl          45   3.2700085525989554E-004   8.6826473760103786E-004  0.37661422962238317     
 chl2c          46  0.51874716441044555        3.7083195475449568E-002  0.51876034999999998        3.2874714992751168E-010   3.3547098075326079E-006
 chl          46   4.5042027545358061E-004   8.6828479528265330E-004  0.51874716441044555     
 chl2c          47   3.7519784612651236E-002   3.7519784612651236E-002  0.61962282499999999        3.2874714992751168E-010   1.4539900745134105E-016
 chl          47   3.2577858501444376E-005   8.6828479528263346E-004   3.7519784612651236E-002
 chl2c          48   3.7823212136301673E-002   3.7823212136301673E-002  0.71424949999999998        3.2874714992751168E-010   1.3983666145970231E-016
 chl          48   3.2841320006700317E-005   8.6828479528263346E-004   3.7823212136301673E-002
 chl2c          49   3.7152990741888416E-002   3.7152990741888416E-002  0.53276120000000005        3.2874714992751168E-010   1.3014166270029176E-016
 chl          49   3.2259376960458159E-005   8.6828479528263346E-004   3.7152990741888416E-002
 chl2c          50  0.38131527430958750        2.1533072915600981E-002  0.38132569999999999        3.2874714992751168E-010   2.2924900239902209E-006
 chl          50   3.3108260659168553E-004   8.6826473760104772E-004  0.38131527430958750     
 chl2c          51   2.0700971146093840E-002   2.0700971146093840E-002  0.22275920000000002        3.2874714992751168E-010   1.7310318748692910E-016
 chl          51   1.7973923280249731E-005   8.6826473760103341E-004   2.0700971146093840E-002
 chl2c          52   3.7581825176985564E-002   3.7581825176985564E-002  0.63698869999999996        3.2874714992751168E-010   1.5473393867370463E-016
 chl          52   3.2631727382657944E-005   8.6828479534945598E-004   3.7581825176985564E-002
 chl2c          53   3.7925801262726190E-002   3.7925801262726190E-002  0.75269794999999995        3.2874714992751168E-010   1.3857920024625915E-016
 chl          53   3.2930396587870350E-005   8.6828479534945598E-004   3.7925801262726190E-002
 chl2c          54   3.7082433371327092E-002   3.7082433371327092E-002  0.51861124999999997        3.2874714992751168E-010   1.1368944206107309E-016
 chl          54   3.2198113068404641E-005   8.6828479528263346E-004   3.7082433371327092E-002
 chl2c          55  0.57806720467059680        3.7357235588660491E-002  0.57808280000000001        3.2874714992751168E-010   3.5221336174016554E-006
 chl          55   5.0192696446702608E-004   8.6828479528265547E-004  0.57806720467059680     
 chl2c          56   3.7507394187257688E-002   3.7507394187257688E-002  0.61626080000000005        3.2874714992751168E-010   1.5514258223393693E-016
 chl          56   3.2567100085974415E-005   8.6828479534945598E-004   3.7507394187257688E-002
 chl2c          57  0.68161065802321086        3.7727617852646313E-002  0.68163462500000005        3.2874714992751168E-010   3.1864474550462221E-006
 chl          57   5.9183217066416231E-004   8.6828479528265926E-004  0.68161065802321086     
 chl2c          58  0.69411316916359167        3.7765358178394853E-002  0.69416802499999997        3.2874714992751168E-010   1.4437900642889109E-006
 chl          58   6.0268791103658674E-004   8.6828479534947788E-004  0.69411316916359167     
 chl2c          59   3.7173699120809672E-002   3.7173699120809672E-002  0.53705127500000005        3.2874714992751168E-010   1.5781314146178815E-016
 chl          59   3.2277357731010439E-005   8.6828479528263346E-004   3.7173699120809672E-002
 chl2c          60  0.64442904068663143        3.7607757740906807E-002  0.64452155000000000        3.2874714992751168E-010   7.3800463502071138E-007
 chl          60   5.5954793766678512E-004   8.6828479528264820E-004  0.64442904068663143     
 chl2c          61   3.7805373434125003E-002   3.7805373434125003E-002  0.70794139999999994        3.2874714992751168E-010   1.3562880845920604E-016
 chl          61   3.2825830932832738E-005   8.6828479528263346E-004   3.7805373434125003E-002
 chl2c          62   3.7956103087269030E-002   3.7956103087269030E-002  0.76481592499999995        3.2874714992751168E-010   1.1070371561805202E-016
 chl          62   3.2956707198855921E-005   8.6828479528263346E-004   3.7956103087269030E-002
 chl2c          63  0.72593787334421445        3.7855601011927406E-002  0.72597904999999996        3.2874714992751168E-010   2.1038001019855206E-006
 chl          63   6.3032081779311932E-004   8.6828479534948190E-004  0.72593787334421445     
 chl2c          64   2.5708982294816416E-002   2.5708982294816416E-002  0.48435739999999999        9.0565292531138250E-010   9.2447222129774892E-017
 chl          64   2.2322202766198391E-005   8.6826473760103341E-004   2.5708982294816416E-002
 chl2c          65   3.7953597170552002E-002   3.7953597170552002E-002  0.76379975000000000        3.2874714992751168E-010   1.2231146795712551E-016
 chl          65   3.2954531352008437E-005   8.6828479534945598E-004   3.7953597170552002E-002
 chl2c          66   3.1840477731474713E-002   3.1840477731474713E-002  0.35213202499999996        2.5394612208865852E-010   7.1686791374344926E-017
 chl          66   2.7645964042610440E-005   8.6826473760103341E-004   3.1840477731474713E-002
 chl2c          67   3.7937587124568600E-002   3.7937587124568600E-002  0.75736760000000003        3.2874714992751168E-010   1.2940204945039735E-016
 chl          67   3.2940630069973117E-005   8.6828479528263346E-004   3.7937587124568600E-002
 chl2c          68  0.72583102030011948        3.7855407263856986E-002  0.72590779999999999        3.2874714992751168E-010   1.1279830626797514E-006
 chl          68   6.3022803891959025E-004   8.6828479534947550E-004  0.72583102030011948     
 chl2c          69  0.45522925867106384        2.1732330561541505E-002  0.45524217500000003        3.2874714992751168E-010   2.6373365965259146E-006
 chl          69   3.9525951282835212E-004   8.6826473760105076E-004  0.45522925867106384     
 chl2c          70   3.2658010878182209E-002   3.2658010878182209E-002  0.48694062500000002        2.5394612208865852E-010   9.4877872650142394E-017
 chl          70   2.8355799245716571E-005   8.6826473760103341E-004   3.2658010878182209E-002
 chl2c          71   4.3481058864416305E-002   4.3481058864416305E-002  0.23986107500000001        1.1810873807074424E-010   7.8954304392965181E-017
 chl          71   3.7753070165527511E-005   8.6826473760103341E-004   4.3481058864416305E-002
 chl2c          72   3.7549776402781669E-002   3.7549776402781669E-002  0.62790522500000001        3.2874714992751168E-010   1.5563173206603049E-016
 chl          72   3.2603899919307116E-005   8.6828479534945598E-004   3.7549776402781669E-002
 chl2c          73   3.1852614277819484E-002   3.1852614277819484E-002  0.35362212500000001        2.5394612208865852E-010   8.7135336578828162E-017
 chl          73   2.7656501777837865E-005   8.6826473760103341E-004   3.1852614277819484E-002
 chl2c          74  0.64711483690158778        3.7616827685877569E-002  0.64719590000000005        3.2874714992751168E-010   8.4923115036787274E-007
 chl          74   5.6187997368345975E-004   8.6828479528264864E-004  0.64711483690158778     
 chl2c          75   3.7826830779512356E-002   3.7826830779512356E-002  0.71554212500000003        3.2874714992751168E-010   1.2272672187883081E-016
 chl          75   3.2844462022107387E-005   8.6828479534945598E-004   3.7826830779512356E-002
 chl2c          76  0.55512386314440976        3.7257729557919804E-002  0.55513977500000000        3.2874714992751168E-010   3.1834894423206000E-006
 chl          76   4.8200560990395495E-004   8.6828479534947713E-004  0.55512386314440976     
 chl2c          77  0.52941998458574491        3.7138172437479272E-002  0.52973029999999999        3.2874714992751168E-010   1.4855381105699126E-007
 chl          77   4.5968732293456848E-004   8.6828479528263346E-004  0.52941998458574491     
 chl2c          78  0.45116919017166751        4.7515248899399322E-002  0.45117492500000000        1.1810873807074424E-010   2.0961193196050340E-006
 chl          78   3.9173429851807601E-004   8.6826473760103873E-004  0.45116919017166751     
 prod   3.7391240116670378E-007   1.1208737985760502E-003   10.000000000000000     
 dcdom   8.5792514338303512E-013  -2.9506663854321838E-010
 chl2c           1   3.7477407714772232E-002   3.7477407714772232E-002  0.60826437499999997        3.7658335483914408E-011   1.3668267606162277E-016
 chl           1   3.2179147377990743E-005   8.5862788650952751E-004   3.7477407714772232E-002
 chl2c           2  0.48302164056242963        3.2640259920490348E-002  0.48302390000000001        2.9801117295556165E-011   1.5386414007261438E-006
 chl           2   4.1472609183618560E-004   8.5860768340167786E-004  0.48302164056242963     
 chl2c           3   3.7922212503796585E-002   3.7922212503796585E-002  0.75128689999999998        3.7658335483914408E-011   1.4743202605519030E-016
 chl           3   3.2561069173900036E-005   8.5862788650952751E-004   3.7922212503796585E-002
 chl2c           4  0.77318373846708310        3.7976509103863923E-002  0.77318742499999993        3.7658335483914408E-011   3.0533775063145997E-006
 chl           4   6.6387711924352684E-004   8.5862788650952751E-004  0.77318373846708310     
 chl2c           5  0.48489181061495007        2.5710500362372445E-002  0.48489679999999996        1.0403260359996274E-010   2.4512444194341131E-006
 chl           5   4.1633183421254738E-004   8.5860768340167786E-004  0.48489181061495007     
 chl2c           6   3.1261039902252048E-002   3.1261039902252048E-002  0.29222855000000003        2.9801117295556165E-011   1.0279286200841485E-016
 chl           6   2.6840969051200043E-005   8.5860768340167775E-004   3.1261039902252048E-002
 chl2c           7  0.22770716066569849        4.3064391842467263E-002  0.22770740000000000        1.3903439103923765E-011   1.5060560307145284E-006
 chl           7   1.9551111771314901E-004   8.5860768340167775E-004  0.22770716066569849     
 chl2c           8   4.7969800906495587E-002   4.7969800906495587E-002  0.49578364999999996        1.3903439103923765E-011   7.0422634224152415E-017
 chl           8   4.1187239629565875E-005   8.5860768340167775E-004   4.7969800906495587E-002
 chl2c           9  0.28699864793382357        2.4803669054600401E-002  0.28700202499999999        1.0403260359996274E-010   1.2687168639941531E-006
 chl           9   2.4641924424187396E-004   8.5860768340167775E-004  0.28699864793382357     
 chl2c          10  0.39094400713147576        2.5387016219684602E-002  0.39094662499999999        1.0403260359996274E-010   3.0368522913463509E-006
 chl          10   3.3566752830292544E-004   8.5860768340167786E-004  0.39094400713147576     
 chl2c          11   2.1820572217820047E-002   2.1820572217820047E-002  0.49737575000000001        3.7658335483914408E-011   1.3609912167538818E-016
 chl          11   1.8735310962441478E-005   8.5860768340167775E-004   2.1820572217820047E-002
 chl2c          12   4.5290941298723353E-002   4.5290941298723353E-002  0.30768942500000002        1.3903439103923765E-011   6.9819804343082495E-017
 chl          12   3.8887150187578230E-005   8.5860768340167775E-004   4.5290941298723353E-002
 chl2c          13   3.7935816987997487E-002   3.7935816987997487E-002  0.75666275000000005        3.7658335483914408E-011   1.2254388037283369E-016
 chl          13   3.2572750360928664E-005   8.5862788644394715E-004   3.7935816987997487E-002
 chl2c          14   4.6856526101924839E-002   4.6856526101924839E-002  0.39804095000000000        1.3903439103923765E-011   8.1193604652026267E-017
 chl          14   4.0231373328623930E-005   8.5860768340167775E-004   4.6856526101924839E-002
 chl2c          15  0.25607227211922134        2.0954299823745293E-002  0.25607262500000000        3.7658335483914408E-011   3.4988782426546850E-006
 chl          15   2.1986562034768866E-004   8.5860768340167775E-004  0.25607227211922134     
 chl2c          16   3.7823443882273475E-002   3.7823443882273475E-002  0.71433214999999994        3.7658335483914408E-011   1.5350001230146612E-016
 chl          16   3.2476263681148190E-005   8.5862788650952751E-004   3.7823443882273475E-002
 chl2c          17   3.7542254757581245E-002   3.7542254757581245E-002  0.62580860000000005        3.7658335483914408E-011   1.5342295240570139E-016
 chl          17   3.2234826857304241E-005   8.5862788650952751E-004   3.7542254757581245E-002
 chl2c          18   2.5694475239060960E-002   2.5694475239060960E-002  0.47925950000000000        1.0403260359996274E-010   1.4210918948406042E-016
 chl          18   2.2061473861231901E-005   8.5860768340167775E-004   2.5694475239060960E-002
 chl2c          19  0.63366681966784189        3.7570220750293731E-002  0.63367130000000005        3.7658335483914408E-011   1.6875082963117039E-006
 chl          19   5.4408400212261298E-004   8.5862788650952751E-004  0.63366681966784189     
 chl2c          20   3.7020645196759419E-002   3.7020645196759419E-002  0.50678202500000002        3.7658335483914408E-011   1.3497062179895523E-016
 chl          20   3.1786958340084803E-005   8.5862788644394715E-004   3.7020645196759419E-002
 chl2c          21  0.71972158604683489        3.7838475073783531E-002  0.71973185000000006        3.7658335483914408E-011   9.5028027098259902E-007
 chl          21   6.1797302425547931E-004   8.5862788644394715E-004  0.71972158604683489     
 chl2c          22  0.64616660753513477        3.7613353106285476E-002  0.64616892500000001        3.7658335483914408E-011   3.3924116439103854E-006
 chl          22   5.5481666856092415E-004   8.5862788650952751E-004  0.64616660753513477     
 chl2c          23   3.2286562315070731E-002   3.2286562315070731E-002  0.41564179999999995        2.9801117295556165E-011   9.2504267454296809E-017
 chl          23   2.7721490474346790E-005   8.5860768340167775E-004   3.2286562315070731E-002
 chl2c          24   3.7348402796863071E-002   3.7348402796863071E-002  0.57597492500000003        3.7658335483914408E-011   1.0951592074792864E-016
 chl          24   3.2068380155527743E-005   8.5862788644394715E-004   3.7348402796863071E-002
 chl2c          25   4.5426679235459781E-002   4.5426679235459781E-002  0.31406487500000002        1.3903439103923765E-011   7.3390406062719832E-017
 chl          25   3.9003695822989219E-005   8.5860768340167775E-004   4.5426679235459781E-002
 chl2c          26   4.7955660680174553E-002   4.7955660680174553E-002  0.49427735000000000        1.3903439103923765E-011   6.7434579749969175E-017
 chl          26   4.1175098722601598E-005   8.5860768340167775E-004   4.7955660680174553E-002
 chl2c          27   4.5333133499525620E-002   4.5333133499525620E-002  0.30964730000000001        1.3903439103923765E-011   8.0570549109213245E-017
 chl          27   3.8923376735366685E-005   8.5860768340167775E-004   4.5333133499525620E-002
 chl2c          28   3.1209236063453518E-002   3.1209236063453518E-002  0.28776342500000002        2.9801117295556165E-011   8.0126341450233704E-017
 chl          28   2.6796489877177921E-005   8.5860768340167775E-004   3.1209236063453518E-002
 chl2c          29  0.68676001776156326        3.7743217595736761E-002  0.68676297499999994        3.7658335483914408E-011   3.0030091714992711E-006
 chl          29   5.8967130254481868E-004   8.5862788644394715E-004  0.68676001776156326     
 chl2c          30   2.5380056985171612E-002   2.5380056985171612E-002  0.38930277499999999        1.0403260359996274E-010   1.5589034374506468E-016
 chl          30   2.1791511932640768E-005   8.5860768340167775E-004   2.5380056985171612E-002
 chl2c          31  0.63559130173014422        3.7576959810037038E-002  0.63559385000000002        3.7658335483914408E-011   2.9849931511231946E-006
 chl          31   5.4573641604671087E-004   8.5862788644394715E-004  0.63559130173014422     
 chl2c          32  0.24722635699710144        2.0893126428578448E-002  0.24722667500000001        3.7658335483914408E-011   3.6190130001671062E-006
 chl          32   2.1227044965711742E-004   8.5860768340167775E-004  0.24722635699710144     
 chl2c          33  0.60342787702514222        3.7458922634011876E-002  0.60343137499999999        3.7658335483914408E-011   1.9600524717710064E-006
 chl          33   5.1812000267145589E-004   8.5862788644394715E-004  0.60342787702514222     
 chl2c          34  0.38240659598245463        2.5350269098008315E-002  0.38241020000000003        1.0403260359996274E-010   2.1106072113956573E-006
 chl          34   3.2833724149401673E-004   8.5860768340167786E-004  0.38240659598245463     
 chl2c          35   2.5740370148566064E-002   2.5740370148566064E-002  0.49574644999999995        1.0403260359996274E-010   1.1232639867494795E-016
 chl          35   2.2100879583162008E-005   8.5860768340167775E-004   2.5740370148566064E-002
 chl2c          36   3.7770393924465726E-002   3.7770393924465726E-002  0.69587337500000002        3.7658335483914408E-011   1.1671951598287066E-016
 chl          36   3.2430713507996304E-005   8.5862788650952751E-004   3.7770393924465726E-002
 chl2c          37   2.1353674699533250E-002   2.1353674699533250E-002  0.33194060000000003        3.7658335483914408E-011   1.0279839506020585E-016
 chl          37   1.8334429165879261E-005   8.5860768340167775E-004   2.1353674699533250E-002
 chl2c          38   2.1543295686358745E-002   2.1543295686358745E-002  0.38455722500000000        3.7658335483914408E-011   1.5914951114784461E-016
 chl          38   1.8497239202101841E-005   8.5860768340167775E-004   2.1543295686358745E-002
 chl2c          39   2.5670077108751441E-002   2.5670077108751441E-002  0.47091117500000002        1.0403260359996274E-010   1.2791753173773053E-016
 chl          39   2.2040525439087513E-005   8.5860768340167775E-004   2.5670077108751441E-002
 chl2c          40   3.7687445774703773E-002   3.7687445774703773E-002  0.66875547499999999        3.7658335483914408E-011   1.5379754480356013E-016
 chl          40   3.2359491913476322E-005   8.5862788650952751E-004   3.7687445774703773E-002
 chl2c          41   2.5582381488167241E-002   2.5582381488167241E-002  0.44304987499999998        1.0403260359996274E-010   9.2520349804746938E-017
 chl          41   2.1965229305453241E-005   8.5860768340167775E-004   2.5582381488167241E-002
 chl2c          42   3.7949995630725070E-002   3.7949995630725070E-002  0.76234377499999995        3.7658335483914408E-011   1.2964791115978515E-016
 chl          42   3.2584924538966494E-005   8.5862788644394715E-004   3.7949995630725070E-002
 chl2c          43   2.1185090152268007E-002   2.1185090152268007E-002  0.29539925000000000        3.7658335483914408E-011   1.5846247993132324E-016
 chl          43   1.8189681178294531E-005   8.5860768340167775E-004   2.1185090152268007E-002
 chl2c          44   3.7536352708156646E-002   3.7536352708156646E-002  0.62417262500000004        3.7658335483914408E-011   1.1070313536040897E-016
 chl          44   3.2229759190619075E-005   8.5862788644394715E-004   3.7536352708156646E-002
 chl2c          45  0.37662114196871688        4.6544927192009838E-002  0.37662252499999999        1.3903439103923765E-011   7.1296995095269378E-007
 chl          45   3.2336980622585442E-004   8.5860768340167775E-004  0.37662114196871688     
 chl2c          46  0.51875874679858236        3.7083195475449568E-002  0.51876034999999998        3.7658335483914408E-011   3.1606415367788466E-006
 chl          46   4.4542072633797753E-004   8.5862788644394715E-004  0.51875874679858236     
 chl2c          47   3.7519784612651236E-002   3.7519784612651236E-002  0.61962282499999999        3.7658335483914408E-011   1.4148983928072850E-016
 chl          47   3.2215533361792858E-005   8.5862788644394715E-004   3.7519784612651236E-002
 chl2c          48   3.7823212136301673E-002   3.7823212136301673E-002  0.71424949999999998        3.7658335483914408E-011   1.3605387293007829E-016
 chl          48   3.2476064695113760E-005   8.5862788644394715E-004   3.7823212136301673E-002
 chl2c          49   3.7152990741888416E-002   3.7152990741888416E-002  0.53276120000000005        3.7658335483914408E-011   1.2658341988062306E-016
 chl          49   3.1900593915779183E-005   8.5862788644394715E-004   3.7152990741888416E-002
 chl2c          50  0.38132456702208578        2.1533072915600981E-002  0.38132569999999999        3.7658335483914408E-011   2.4165764695392783E-006
 chl          50   3.2740820311498090E-004   8.5860768340167786E-004  0.38132456702208578     
 chl2c          51   2.0700971146093840E-002   2.0700971146093840E-002  0.22275920000000002        3.7658335483914408E-011   1.6922883689010866E-016
 chl          51   1.7774012879912607E-005   8.5860768340167775E-004   2.0700971146093840E-002
 chl2c          52   3.7581825176985564E-002   3.7581825176985564E-002  0.63698869999999996        3.7658335483914408E-011   1.5061666487177567E-016
 chl          52   3.2268803122885663E-005   8.5862788650952751E-004   3.7581825176985564E-002
 chl2c          53   3.7925801262726190E-002   3.7925801262726190E-002  0.75269794999999995        3.7658335483914408E-011   1.3482522896338688E-016
 chl          53   3.2564150582394957E-005   8.5862788650952751E-004   3.7925801262726190E-002
 chl2c          54   3.7082433371327092E-002   3.7082433371327092E-002  0.51861124999999997        3.7658335483914408E-011   1.1052476527205024E-016
 chl          54   3.1840011389821073E-005   8.5862788644394715E-004   3.7082433371327092E-002
 chl2c          55  0.57808093911689296        3.7357235588660491E-002  0.57808280000000001        3.7658335483914408E-011   3.3813546876818048E-006
 chl          55   4.9635641494746993E-004   8.5862788644394715E-004  0.57808093911689296     
 chl2c          56   3.7507394187257688E-002   3.7507394187257688E-002  0.61626080000000005        3.7658335483914408E-011   1.5101631222486507E-016
 chl          56   3.2204894599484808E-005   8.5862788650952751E-004   3.7507394187257688E-002
 chl2c          57  0.68163154262462777        3.7727617852646313E-002  0.68163462500000005        3.7658335483914408E-011   2.8382256514358672E-006
 chl          57   5.8526785077731144E-004   8.5862788644394715E-004  0.68163154262462777     
 chl2c          58  0.69416277976446394        3.7765358178394853E-002  0.69416802499999997        3.7658335483914408E-011   1.7297847273776277E-006
 chl          58   5.9602752048274030E-004   8.5862788650952751E-004  0.69416277976446394     
 chl2c          59   3.7173699120809672E-002   3.7173699120809672E-002  0.53705127500000005        3.7658335483914408E-011   1.5362831383704481E-016
 chl          59   3.1918374707404023E-005   8.5862788644394715E-004   3.7173699120809672E-002
 chl2c          60  0.64451343356691870        3.7607757740906807E-002  0.64452155000000000        3.7658335483914408E-011   9.6368550945346548E-007
 chl          60   5.5339720724829477E-004   8.5862788644394715E-004  0.64451343356691870     
 chl2c          61   3.7805373434125003E-002   3.7805373434125003E-002  0.70794139999999994        3.7658335483914408E-011   1.3194280981216938E-016
 chl          61   3.2460747887966900E-005   8.5862788644394715E-004   3.7805373434125003E-002
 chl2c          62   3.7956103087269030E-002   3.7956103087269030E-002  0.76481592499999995        3.7658335483914408E-011   1.0761216342706863E-016
 chl          62   3.2590168571470386E-005   8.5862788644394715E-004   3.7956103087269030E-002
 chl2c          63  0.72597445165889873        3.7855601011927406E-002  0.72597904999999996        3.7658335483914408E-011   2.1581188904918227E-006
 chl          63   6.2334190908779335E-004   8.5862788650952751E-004  0.72597445165889873     
 chl2c          64   2.5708982294816416E-002   2.5708982294816416E-002  0.48435739999999999        1.0403260359996274E-010   9.0006583374066899E-017
 chl          64   2.2073929730767072E-005   8.5860768340167775E-004   2.5708982294816416E-002
 chl2c          65   3.7953597170552002E-002   3.7953597170552002E-002  0.76379975000000000        3.7658335483914408E-011   1.1893856430809582E-016
 chl          65   3.2588016923985048E-005   8.5862788650952751E-004   3.7953597170552002E-002
 chl2c          66   3.1840477731474713E-002   3.1840477731474713E-002  0.35213202499999996        2.9801117295556165E-011   7.3012536360386725E-017
 chl          66   2.7338478823424210E-005   8.5860768340167775E-004   3.1840477731474713E-002
 chl2c          67   3.7937587124568600E-002   3.7937587124568600E-002  0.75736760000000003        3.7658335483914408E-011   1.2586116047456519E-016
 chl          67   3.2574270249551440E-005   8.5862788644394715E-004   3.7937587124568600E-002
 chl2c          68  0.72590093971559189        3.7855407263856986E-002  0.72590779999999999        3.7658335483914408E-011   1.4462648302927870E-006
 chl          68   6.2327878968327863E-004   8.5862788650952751E-004  0.72590093971559189     
 chl2c          69  0.45524062336452603        2.1732330561541505E-002  0.45524217500000003        3.7658335483914408E-011   2.5149243356460982E-006
 chl          69   3.9087309701735142E-004   8.5860768340167786E-004  0.45524062336452603     
 chl2c          70   3.2658010878182209E-002   3.2658010878182209E-002  0.48694062500000002        2.9801117295556165E-011   9.6497953585803214E-017
 chl          70   2.8040419064622819E-005   8.5860768340167775E-004   3.2658010878182209E-002
 chl2c          71   4.3481058864416305E-002   4.3481058864416305E-002  0.23986107500000001        1.3903439103923765E-011   8.0391916177664510E-017
 chl          71   3.7333171223428471E-005   8.5860768340167775E-004   4.3481058864416305E-002
 chl2c          72   3.7549776402781669E-002   3.7549776402781669E-002  0.62790522500000001        3.7658335483914408E-011   1.5149470603550422E-016
 chl          72   3.2241285151625753E-005   8.5862788650952751E-004   3.7549776402781669E-002
 chl2c          73   3.1852614277819484E-002   3.1852614277819484E-002  0.35362212500000001        2.9801117295556165E-011   8.8693929730956153E-017
 chl          73   2.7348899355365791E-005   8.5860768340167775E-004   3.1852614277819484E-002
 chl2c          74  0.64718888824144671        3.7616827685877569E-002  0.64719590000000005        3.7658335483914408E-011   1.1247887941059033E-006
 chl          74   5.5569442724076135E-004   8.5862788644394715E-004  0.64718888824144671     
 chl2c          75   3.7826830779512356E-002   3.7826830779512356E-002  0.71554212500000003        3.7658335483914408E-011   1.1934389947364192E-016
 chl          75   3.2479171765566240E-005   8.5862788650952751E-004   3.7826830779512356E-002
 chl2c          76  0.55513786164656620        3.7257729557919804E-002  0.55513977500000000        3.7658335483914408E-011   3.0327675008492520E-006
 chl          76   4.7665684886700961E-004   8.5862788650952751E-004  0.55513786164656620     
 chl2c          77  0.52971439514793106        3.7138172437479272E-002  0.52973029999999999        3.7658335483914408E-011   3.3219881607505571E-007
 chl          77   4.5482755152480189E-004   8.5862788644394715E-004  0.52971439514793106     
 chl2c          78  0.45117419240609180        4.7515248899399322E-002  0.45117492500000000        1.3903439103923765E-011   1.9316042166864655E-006
 chl          78   3.8738162815241730E-004   8.5860768340167775E-004  0.45117419240609180     
 prod   3.8188331645408292E-007   1.3127822135655299E-004   10.000000000000000     
 dcdom   9.5302597204883175E-013  -2.9414209122885304E-010
 chl2c           1   3.7477407714772232E-002   3.7477407714772232E-002  0.60826437499999997        4.4888253485290056E-012   1.4220015206569625E-016
 chl           1   2.8898102285783698E-005   7.7108060690102417E-004   3.7477407714772232E-002
 chl2c           2  0.48302365572971467        3.2640259920490348E-002  0.48302390000000001        3.6082590355419077E-012   1.7231936803331692E-006
 chl           2   3.7236154119450949E-004   7.7089711192710538E-004  0.48302365572971467     
 chl2c           3   3.7922212503796585E-002   3.7922212503796585E-002  0.75128689999999998        4.4888253485290056E-012   1.5338957339275538E-016
 chl           3   2.9241082632457077E-005   7.7108060690102417E-004   3.7922212503796585E-002
 chl2c           4  0.77318701648124799        3.7976509103863923E-002  0.77318742499999993        4.4888253485290056E-012   3.2844303068059598E-006
 chl           4   5.9618951391635284E-004   7.7108060690102417E-004  0.77318701648124799     
 chl2c           5  0.48489620134150979        2.5710500362372445E-002  0.48489679999999996        1.2377750527686224E-011   2.4306962083569529E-006
 chl           5   3.7380508119859408E-004   7.7089711192710538E-004  0.48489620134150979     
 chl2c           6   3.1261039902252048E-002   3.1261039902252048E-002  0.29222855000000003        3.6082590355419077E-012   1.2360301806739390E-016
 chl           6   2.4099045376484106E-005   7.7089711192710538E-004   3.1261039902252048E-002
 chl2c           7  0.22770737527450910        4.3064391842467263E-002  0.22770740000000000        1.6885295765974245E-012   1.7704676499513354E-006
 chl           7   1.7553895796362063E-004   7.7089711192710538E-004  0.22770737527450910     
 chl2c           8  0.49577990141018419        4.7969800906495587E-002  0.49578364999999996        1.6885295765974245E-012   5.5359463528087394E-008
 chl           8   3.8219529414861605E-004   7.7089711192710538E-004  0.49577990141018419     
 chl2c           9  0.28700173079357411        2.4803669054600401E-002  0.28700202499999999        1.2377750527686224E-011   1.7327226494572305E-006
 chl           9   2.2124880538684687E-004   7.7089711192710538E-004  0.28700173079357411     
 chl2c          10  0.39094631747460751        2.5387016219684602E-002  0.39094662499999999        1.2377750527686224E-011   3.0758513506100937E-006
 chl          10   3.0137938705971219E-004   7.7089711192710538E-004  0.39094631747460751     
 chl2c          11   2.1820572217820047E-002   2.1820572217820047E-002  0.49737575000000001        4.4888253485290056E-012   1.4162675414052950E-016
 chl          11   1.6821416103314308E-005   7.7089711192710538E-004   2.1820572217820047E-002
 chl2c          12   4.5290941298723353E-002   4.5290941298723353E-002  0.30768942500000002        1.6885295765974245E-012   8.2388595306414813E-017
 chl          12   3.4914655843645896E-005   7.7089711192710538E-004   4.5290941298723353E-002
 chl2c          13   3.7935816987997487E-002   3.7935816987997487E-002  0.75666275000000005        4.4888253485290056E-012   1.2748322066915892E-016
 chl          13   2.9251572784326197E-005   7.7108060684658779E-004   3.7935816987997487E-002
 chl2c          14   4.6856526101924839E-002   4.6856526101924839E-002  0.39804095000000000        1.6885295765974245E-012   9.8183988224129947E-017
 chl          14   3.6121560646910890E-005   7.7089711192710538E-004   4.6856526101924839E-002
 chl2c          15  0.25607258365467772        2.0954299823745293E-002  0.25607262500000000        4.4888253485290056E-012   3.5596112294877336E-006
 chl          15   1.9740561518310313E-004   7.7089711192710538E-004  0.25607258365467772     
 chl2c          16   3.7823443882273475E-002   3.7823443882273475E-002  0.71433214999999994        4.4888253485290056E-012   1.5970613065959026E-016
 chl          16   2.9164924063830260E-005   7.7108060690102417E-004   3.7823443882273475E-002
 chl2c          17   3.7542254757581245E-002   3.7542254757581245E-002  0.62580860000000005        4.4888253485290056E-012   1.5962591349489800E-016
 chl          17   2.8948104582908609E-005   7.7108060690102417E-004   3.7542254757581245E-002
 chl2c          18   2.5694475239060960E-002   2.5694475239060960E-002  0.47925950000000000        1.2377750527686224E-011   1.4788185455251763E-016
 chl          18   1.9807796754274616E-005   7.7089711192710538E-004   2.5694475239060960E-002
 chl2c          19  0.63367083502504717        3.7570220750293731E-002  0.63367130000000005        4.4888253485290056E-012   1.9382103576053856E-006
 chl          19   4.8861129204659211E-004   7.7108060690102417E-004  0.63367083502504717     
 chl2c          20   3.7020645196759419E-002   3.7020645196759419E-002  0.50678202500000002        4.4888253485290056E-012   1.4041804547376171E-016
 chl          20   2.8545901564169469E-005   7.7108060684658779E-004   3.7020645196759419E-002
 chl2c          21  0.71973094540013471        3.7838475073783531E-002  0.71973185000000006        4.4888253485290056E-012   1.2852484579411035E-006
 chl          21   5.5497057414540419E-004   7.7108060684658779E-004  0.71973094540013471     
 chl2c          22  0.64616865551660041        3.7613353106285476E-002  0.64616892500000001        4.4888253485290056E-012   3.4774640645013455E-006
 chl          22   4.9824811905615910E-004   7.7108060690102417E-004  0.64616865551660041     
 chl2c          23   3.2286562315070731E-002   3.2286562315070731E-002  0.41564179999999995        3.6082590355419077E-012   1.0823835983854756E-016
 chl          23   2.4889617642742545E-005   7.7089711192710538E-004   3.2286562315070731E-002
 chl2c          24   3.7348402796863071E-002   3.7348402796863071E-002  0.57597492500000003        4.4888253485290056E-012   1.1392346172073995E-016
 chl          24   2.8798629093355975E-005   7.7108060684658779E-004   3.7348402796863071E-002
 chl2c          25   4.5426679235459781E-002   4.5426679235459781E-002  0.31406487500000002        1.6885295765974245E-012   8.6486472659298819E-017
 chl          25   3.5019295827054955E-005   7.7089711192710538E-004   4.5426679235459781E-002
 chl2c          26   4.7955660680174553E-002   4.7955660680174553E-002  0.49427735000000000        1.6885295765974245E-012   7.9645038225563166E-017
 chl          26   3.6968880318902805E-005   7.7089711192710538E-004   4.7955660680174553E-002
 chl2c          27   4.5333133499525620E-002   4.5333133499525620E-002  0.30964730000000001        1.6885295765974245E-012   9.7446652921627083E-017
 chl          27   3.4947181689390213E-005   7.7089711192710538E-004   4.5333133499525620E-002
 chl2c          28   3.1209236063453518E-002   3.1209236063453518E-002  0.28776342500000002        3.6082590355419077E-012   9.6920826668661195E-017
 chl          28   2.4059109946767580E-005   7.7089711192710538E-004   3.1209236063453518E-002
 chl2c          29  0.68676262755688067        3.7743217595736761E-002  0.68676297499999994        4.4888253485290056E-012   3.0467198632190530E-006
 chl          29   5.2954934361611672E-004   7.7108060684658779E-004  0.68676262755688067     
 chl2c          30   2.5380056985171612E-002   2.5380056985171612E-002  0.38930277499999999        1.2377750527686224E-011   1.6222300450610521E-016
 chl          30   1.9565412630414154E-005   7.7089711192710538E-004   2.5380056985171612E-002
 chl2c          31  0.63559353739053548        3.7576959810037038E-002  0.63559385000000002        4.4888253485290056E-012   2.9004123718493359E-006
 chl          31   4.9009385051886349E-004   7.7108060684658779E-004  0.63559353739053548     
 chl2c          32  0.24722663813461115        2.0893126428578448E-002  0.24722667500000001        4.4888253485290056E-012   3.7211269316122034E-006
 chl          32   1.9058630132941931E-004   7.7089711192710538E-004  0.24722663813461115     
 chl2c          33  0.60343100220392909        3.7458922634011876E-002  0.60343137499999999        4.4888253485290056E-012   2.1922339150887308E-006
 chl          33   4.6529394336945030E-004   7.7108060684658779E-004  0.60343100220392909     
 chl2c          34  0.38240973257415434        2.5350269098008315E-002  0.38241020000000003        1.2377750527686224E-011   1.9362320811709859E-006
 chl          34   2.9479855841423231E-004   7.7089711192710538E-004  0.38240973257415434     
 chl2c          35   2.5740370148566064E-002   2.5740370148566064E-002  0.49574644999999995        1.2377750527686224E-011   1.1688159109358007E-016
 chl          35   1.9843177007464255E-005   7.7089711192710538E-004   2.5740370148566064E-002
 chl2c          36   3.7770393924465726E-002   3.7770393924465726E-002  0.69587337500000002        4.4888253485290056E-012   1.2142098502570945E-016
 chl          36   2.9124018270167789E-005   7.7108060690102417E-004   3.7770393924465726E-002
 chl2c          37   2.1353674699533250E-002   2.1353674699533250E-002  0.33194060000000003        4.4888253485290056E-012   1.0696304366166012E-016
 chl          37   1.6461486154901082E-005   7.7089711192710538E-004   2.1353674699533250E-002
 chl2c          38   2.1543295686358745E-002   2.1543295686358745E-002  0.38455722500000000        4.4888253485290056E-012   1.6561415914387574E-016
 chl          38   1.6607664426005624E-005   7.7089711192710538E-004   2.1543295686358745E-002
 chl2c          39   2.5670077108751441E-002   2.5670077108751441E-002  0.47091117500000002        1.2377750527686224E-011   1.3311097542195759E-016
 chl          39   1.9788988306082586E-005   7.7089711192710538E-004   2.5670077108751441E-002
 chl2c          40   3.7687445774703773E-002   3.7687445774703773E-002  0.66875547499999999        4.4888253485290056E-012   1.6001585367502160E-016
 chl          40   2.9060058560508025E-005   7.7108060690102417E-004   3.7687445774703773E-002
 chl2c          41   2.5582381488167241E-002   2.5582381488167241E-002  0.44304987499999998        1.2377750527686224E-011   9.6263655162847570E-017
 chl          41   1.9721384005445568E-005   7.7089711192710538E-004   2.5582381488167241E-002
 chl2c          42   3.7949995630725070E-002   3.7949995630725070E-002  0.76234377499999995        4.4888253485290056E-012   1.3487762226046963E-016
 chl          42   2.9262505660764842E-005   7.7108060684658779E-004   3.7949995630725070E-002
 chl2c          43   2.1185090152268007E-002   2.1185090152268007E-002  0.29539925000000000        4.4888253485290056E-012   1.6489932090332775E-016
 chl          43   1.6331524814298770E-005   7.7089711192710538E-004   2.1185090152268007E-002
 chl2c          44   3.7536352708156646E-002   3.7536352708156646E-002  0.62417262500000004        4.4888253485290056E-012   1.1515909618808028E-016
 chl          44   2.8943553625012988E-005   7.7108060684658779E-004   3.7536352708156646E-002
 chl2c          45  0.37662228137231296        4.6544927192009838E-002  0.37662252499999999        1.6885295765974245E-012   4.9154619074076284E-007
 chl          45   2.9033702899731371E-004   7.7089711192710538E-004  0.37662228137231296     
 chl2c          46  0.51876015887065530        3.7083195475449568E-002  0.51876034999999998        4.4888253485290056E-012   3.1601575209885987E-006
 chl          46   4.0000589810981719E-004   7.7108060684658779E-004  0.51876015887065530     
 chl2c          47   3.7519784612651236E-002   3.7519784612651236E-002  0.61962282499999999        4.4888253485290056E-012   1.4720406942984813E-016
 chl          47   2.8930778287876382E-005   7.7108060684658779E-004   3.7519784612651236E-002
 chl2c          48   3.7823212136301673E-002   3.7823212136301673E-002  0.71424949999999998        4.4888253485290056E-012   1.4154561878239674E-016
 chl          48   2.9164745366946719E-005   7.7108060684658779E-004   3.7823212136301673E-002
 chl2c          49   3.7152990741888416E-002   3.7152990741888416E-002  0.53276120000000005        4.4888253485290056E-012   1.3168784266287931E-016
 chl          49   2.8647950647420977E-005   7.7108060684658779E-004   3.7152990741888416E-002
 chl2c          50  0.38132557561865377        2.1533072915600981E-002  0.38132569999999999        4.4888253485290056E-012   2.6238528189220667E-006
 chl          50   2.9396278494836124E-004   7.7089711192710538E-004  0.38132557561865377     
 chl2c          51   2.0700971146093840E-002   2.0700971146093840E-002  0.22275920000000002        4.4888253485290056E-012   1.7610038639510016E-016
 chl          51   1.5958318870610081E-005   7.7089711192710538E-004   2.0700971146093840E-002
 chl2c          52   3.7581825176985564E-002   3.7581825176985564E-002  0.63698869999999996        4.4888253485290056E-012   1.5670465723472433E-016
 chl          52   2.8978616565918221E-005   7.7108060690102417E-004   3.7581825176985564E-002
 chl2c          53   3.7925801262726190E-002   3.7925801262726190E-002  0.75269794999999995        4.4888253485290056E-012   1.4026670411819640E-016
 chl          53   2.9243849854870540E-005   7.7108060690102417E-004   3.7925801262726190E-002
 chl2c          54   3.7082433371327092E-002   3.7082433371327092E-002  0.51861124999999997        4.4888253485290056E-012   1.1497345080747045E-016
 chl          54   2.8593545227311052E-005   7.7108060684658779E-004   3.7082433371327092E-002
 chl2c          55  0.57808258303055449        3.7357235588660491E-002  0.57808280000000001        4.4888253485290056E-012   3.4568781055496676E-006
 chl          55   4.4574826893064293E-004   7.7108060684658779E-004  0.57808258303055449     
 chl2c          56   3.7507394187257688E-002   3.7507394187257688E-002  0.61626080000000005        4.4888253485290056E-012   1.5712067628669670E-016
 chl          56   2.8921224273186604E-005   7.7108060690102417E-004   3.7507394187257688E-002
 chl2c          57  0.68163422964208886        3.7727617852646313E-002  0.68163462500000005        4.4888253485290056E-012   2.6376387431094320E-006
 chl          57   5.2559493543982824E-004   7.7108060684658779E-004  0.68163422964208886     
 chl2c          58  0.69416751096424789        3.7765358178394853E-002  0.69416802499999997        4.4888253485290056E-012   2.1039638584396470E-006
 chl          58   5.3525910564528566E-004   7.7108060690102417E-004  0.69416751096424789     
 chl2c          59   3.7173699120809672E-002   3.7173699120809672E-002  0.53705127500000005        4.4888253485290056E-012   1.5983968894660880E-016
 chl          59   2.8663918476806390E-005   7.7108060684658779E-004   3.7173699120809672E-002
 chl2c          60  0.64452080454333871        3.7607757740906807E-002  0.64452155000000000        4.4888253485290056E-012   1.2507044525743197E-006
 chl          60   4.9697749309252862E-004   7.7108060684658779E-004  0.64452080454333871     
 chl2c          61   3.7805373434125003E-002   3.7805373434125003E-002  0.70794139999999994        4.4888253485290056E-012   1.3726637328812835E-016
 chl          61   2.9150990289646977E-005   7.7108060684658779E-004   3.7805373434125003E-002
 chl2c          62   3.7956103087269030E-002   3.7956103087269030E-002  0.76481592499999995        4.4888253485290056E-012   1.1194207975236699E-016
 chl          62   2.9267215002063048E-005   7.7108060684658779E-004   3.7956103087269030E-002
 chl2c          63  0.72597854035427500        3.7855601011927406E-002  0.72597904999999996        4.4888253485290056E-012   2.3210377202165735E-006
 chl          63   5.5978797349349400E-004   7.7108060690102417E-004  0.72597854035427500     
 chl2c          64   2.5708982294816416E-002   2.5708982294816416E-002  0.48435739999999999        1.2377750527686224E-011   9.3646865459065907E-017
 chl          64   1.9818980201659063E-005   7.7089711192710538E-004   2.5708982294816416E-002
 chl2c          65   3.7953597170552002E-002   3.7953597170552002E-002  0.76379975000000000        4.4888253485290056E-012   1.2373063888861314E-016
 chl          65   2.9265282740346230E-005   7.7108060690102417E-004   3.7953597170552002E-002
 chl2c          66   3.1840477731474713E-002   3.1840477731474713E-002  0.35213202499999996        3.6082590355419077E-012   8.6053319646068132E-017
 chl          66   2.4545732325573168E-005   7.7089711192710538E-004   3.1840477731474713E-002
 chl2c          67   3.7937587124568600E-002   3.7937587124568600E-002  0.75736760000000003        4.4888253485290056E-012   1.3093606097337582E-016
 chl          67   2.9252937702307651E-005   7.7108060684658779E-004   3.7937587124568600E-002
 chl2c          68  0.72590716103634101        3.7855407263856986E-002  0.72590779999999999        4.4888253485290056E-012   1.8509261781120231E-006
 chl          68   5.5973293428570128E-004   7.7108060690102417E-004  0.72590716103634101     
 chl2c          69  0.45524199289850398        2.1732330561541505E-002  0.45524217500000003        4.4888253485290056E-012   2.5543123554843227E-006
 chl          69   3.5094473755339651E-004   7.7089711192710538E-004  0.45524199289850398     
 chl2c          70   3.2658010878182209E-002   3.2658010878182209E-002  0.48694062500000002        3.6082590355419077E-012   1.1622298363907240E-016
 chl          70   2.5175966267274654E-005   7.7089711192710538E-004   3.2658010878182209E-002
 chl2c          71   4.3481058864416305E-002   4.3481058864416305E-002  0.23986107500000001        1.6885295765974245E-012   9.4490258359731206E-017
 chl          71   3.3519422702110994E-005   7.7089711192710538E-004   4.3481058864416305E-002
 chl2c          72   3.7549776402781669E-002   3.7549776402781669E-002  0.62790522500000001        4.4888253485290056E-012   1.5761866819271765E-016
 chl          72   2.8953904377654645E-005   7.7108060690102417E-004   3.7549776402781669E-002
 chl2c          73   3.1852614277819484E-002   3.1852614277819484E-002  0.35362212500000001        3.6082590355419077E-012   1.0392677783031699E-016
 chl          73   2.4555088354099120E-005   7.7089711192710538E-004   3.1852614277819484E-002
 chl2c          74  0.64719526218640311        3.7616827685877569E-002  0.64719590000000005        4.4888253485290056E-012   1.4739407496523489E-006
 chl          74   4.9903971551492818E-004   7.7108060684658779E-004  0.64719526218640311     
 chl2c          75   3.7826830779512356E-002   3.7826830779512356E-002  0.71554212500000003        4.4888253485290056E-012   1.2415252719561695E-016
 chl          75   2.9167535634608730E-005   7.7108060690102417E-004   3.7826830779512356E-002
 chl2c          76  0.55513955107983204        3.7257729557919804E-002  0.55513977500000000        4.4888253485290056E-012   3.0889723170483036E-006
 chl          76   4.2805734196139900E-004   7.7108060690102417E-004  0.55513955107983204     
 chl2c          77  0.52972919059268297        3.7138172437479272E-002  0.52973029999999999        4.4888253485290056E-012   5.6770197706865801E-007
 chl          77   4.0846390574655775E-004   7.7108060684658779E-004  0.52972919059268297     
 chl2c          78  0.45117484001277164        4.7515248899399322E-002  0.45117492500000000        1.6885295765974245E-012   2.0221568474636461E-006
 chl          78   3.4780938114001948E-004   7.7089711192710538E-004  0.45117484001277164     
 prod   4.6271172481221947E-007   1.5892678445963702E-005   10.000000000000000     
 dcdom   1.0454562459456967E-012  -2.8238303697512066E-010
 chl2c           1  0.60825794700952707        3.7477407714772232E-002  0.60826437499999997        5.6690032503068255E-013   1.6314796423844128E-008
 chl           1   4.1560962469002600E-004   6.8327857734264239E-004  0.60825794700952707     
 chl2c           2  0.48302387148939718        3.2640259920490348E-002  0.48302390000000001        4.6022262091293082E-013   1.8830800415551239E-006
 chl           2   3.2995113867294545E-004   6.8309489064286998E-004  0.48302387148939718     
 chl2c           3   3.7922212503796585E-002   3.7922212503796585E-002  0.75128689999999998        5.6690032503068255E-013   1.5854496077953497E-016
 chl           3   2.5911435409279496E-005   6.8327857734264239E-004   3.7922212503796585E-002
 chl2c           4  0.77318737572400853        3.7976509103863923E-002  0.77318742499999993        5.6690032503068255E-013   3.4388313324995505E-006
 chl           4   5.2830237010399164E-004   6.8327857734264239E-004  0.77318737572400853     
 chl2c           5  0.48489672387856342        2.5710500362372445E-002  0.48489679999999996        1.5585599724433703E-012   2.4070500164381809E-006
 chl           5   3.3123047457091318E-004   6.8309489064286998E-004  0.48489672387856342     
 chl2c           6   3.1261039902252048E-002   3.1261039902252048E-002  0.29222855000000003        4.6022262091293082E-013   1.4309759464906661E-016
 chl           6   2.1354256633411258E-005   6.8309489064286998E-004   3.1261039902252048E-002
 chl2c           7  0.22770739721726982        4.3064391842467263E-002  0.22770740000000000        2.1588907365536412E-013   2.0113324139056797E-006
 chl           7   1.5554575960070348E-004   6.8309489064286998E-004  0.22770739721726982     
 chl2c           8  0.49578351774387985        4.7969800906495587E-002  0.49578364999999996        2.1588907365536412E-013   2.0061766641007844E-007
 chl           8   3.3866718783579300E-004   6.8309489064286998E-004  0.49578351774387985     
 chl2c           9  0.28700199353924571        2.4803669054600401E-002  0.28700202499999999        1.5585599724433703E-012   2.0403011102441998E-006
 chl           9   1.9604959539097673E-004   6.8309489064286998E-004  0.28700199353924571     
 chl2c          10  0.39094658668390236        2.5387016219684602E-002  0.39094662499999999        1.5585599724433703E-012   3.1084733275887102E-006
 chl          10   2.6705361587804356E-004   6.8309489064286998E-004  0.39094658668390236     
 chl2c          11   2.1820572217820047E-002   2.1820572217820047E-002  0.49737575000000001        5.6690032503068255E-013   1.4632319208444483E-016
 chl          11   1.4905521392896631E-005   6.8309489064286998E-004   2.1820572217820047E-002
 chl2c          12   4.5290941298723353E-002   4.5290941298723353E-002  0.30768942500000002        2.1588907365536412E-013   9.4304979392308523E-017
 chl          12   3.0938010593564072E-005   6.8309489064286998E-004   4.5290941298723353E-002
 chl2c          13   3.7935816987997487E-002   3.7935816987997487E-002  0.75666275000000005        5.6690032503068255E-013   1.3177887463312207E-016
 chl          13   2.5920731060209449E-005   6.8327857729834861E-004   3.7935816987997487E-002
 chl2c          14   4.6856526101924839E-002   4.6856526101924839E-002  0.39804095000000000        2.1588907365536412E-013   1.1428422271925963E-016
 chl          14   3.2007453573499133E-005   6.8309489064286998E-004   4.6856526101924839E-002
 chl2c          15  0.25607261985948127        2.0954299823745293E-002  0.25607262500000000        5.6690032503068255E-013   3.6157305782239971E-006
 chl          15   1.7492189825954558E-004   6.8309489064286998E-004  0.25607261985948127     
 chl2c          16   3.7823443882273475E-002   3.7823443882273475E-002  0.71433214999999994        5.6690032503068255E-013   1.6507008023899557E-016
 chl          16   2.5843948926079092E-005   6.8327857734264239E-004   3.7823443882273475E-002
 chl2c          17   3.7542254757581245E-002   3.7542254757581245E-002  0.62580860000000005        5.6690032503068255E-013   1.6498721723581519E-016
 chl          17   2.5651818420995161E-005   6.8327857734264239E-004   3.7542254757581245E-002
 chl2c          18   2.5694475239060960E-002   2.5694475239060960E-002  0.47925950000000000        1.5585599724433703E-012   1.5277596954836259E-016
 chl          18   1.7551764753552275E-005   6.8309489064286998E-004   2.5694475239060960E-002
 chl2c          19  0.63367124591063595        3.7570220750293731E-002  0.63367130000000005        5.6690032503068255E-013   2.1042283740897138E-006
 chl          19   4.3297398740875905E-004   6.8327857734264239E-004  0.63367124591063595     
 chl2c          20   3.7020645196759419E-002   3.7020645196759419E-002  0.50678202500000002        5.6690032503068255E-013   1.4514379254169336E-016
 chl          20   2.5295413780708720E-005   6.8327857729834861E-004   3.7020645196759419E-002
 chl2c          21  0.71973175359528885        3.7838475073783531E-002  0.71973185000000006        5.6690032503068255E-013   1.5230699073195062E-006
 chl          21   4.9177728863303456E-004   6.8327857729834861E-004  0.71973175359528885     
 chl2c          22  0.64616889168307801        3.7613353106285476E-002  0.64616892500000001        5.6690032503068255E-013   3.5522535033692245E-006
 chl          22   4.4151336103228554E-004   6.8327857734264239E-004  0.64616889168307801     
 chl2c          23   3.2286562315070731E-002   3.2286562315070731E-002  0.41564179999999995        4.6022262091293082E-013   1.2291320252790798E-016
 chl          23   2.2054785753847448E-005   6.8309489064286998E-004   3.2286562315070731E-002
 chl2c          24   3.7348402796863071E-002   3.7348402796863071E-002  0.57597492500000003        5.6690032503068255E-013   1.1776662308711619E-016
 chl          24   2.5519363527406264E-005   6.8327857729834861E-004   3.7348402796863071E-002
 chl2c          25   4.5426679235459781E-002   4.5426679235459781E-002  0.31406487500000002        2.1588907365536412E-013   9.8870545800602489E-017
 chl          25   3.1030732484615130E-005   6.8309489064286998E-004   4.5426679235459781E-002
 chl2c          26   4.7955660680174553E-002   4.7955660680174553E-002  0.49427735000000000        2.1588907365536412E-013   9.1241843337610000E-017
 chl          26   3.2758266788030416E-005   6.8309489064286998E-004   4.7955660680174553E-002
 chl2c          27   4.5333133499525620E-002   4.5333133499525620E-002  0.30964730000000001        2.1588907365536412E-013   1.1344399269552743E-016
 chl          27   3.0966831870357078E-005   6.8309489064286998E-004   4.5333133499525620E-002
 chl2c          28   3.1209236063453518E-002   3.1209236063453518E-002  0.28776342500000002        4.6022262091293082E-013   1.1284463198936423E-016
 chl          28   2.1318869695812296E-005   6.8309489064286998E-004   3.1209236063453518E-002
 chl2c          29  0.68676293175100189        3.7743217595736761E-002  0.68676297499999994        5.6690032503068255E-013   3.0911094273859907E-006
 chl          29   4.6925039894806745E-004   6.8327857729834861E-004  0.68676293175100189     
 chl2c          30   2.5380056985171612E-002   2.5380056985171612E-002  0.38930277499999999        1.5585599724433703E-012   1.6756544523329004E-016
 chl          30   1.7336987250795612E-005   6.8309489064286998E-004   2.5380056985171612E-002
 chl2c          31  0.63559380963529799        3.7576959810037038E-002  0.63559385000000002        5.6690032503068255E-013   2.8368364938191078E-006
 chl          31   4.3428763398724383E-004   6.8327857729834861E-004  0.63559380963529799     
 chl2c          32  0.24722667044066932        2.0893126428578448E-002  0.24722667500000001        5.6690032503068255E-013   3.7998483384187098E-006
 chl          32   1.6887927540866986E-004   6.8309489064286998E-004  0.24722667044066932     
 chl2c          33  0.60343133099176938        3.7458922634011876E-002  0.60343137499999999        5.6690032503068255E-013   2.3453007621086178E-006
 chl          33   4.1231170133730507E-004   6.8327857729834861E-004  0.60343133099176938     
 chl2c          34  0.38241013641942145        2.5350269098008315E-002  0.38241020000000003        1.5585599724433703E-012   1.7923710069408483E-006
 chl          34   2.6122241031814971E-004   6.8309489064286998E-004  0.38241013641942145     
 chl2c          35   2.5740370148566064E-002   2.5740370148566064E-002  0.49574644999999995        1.5585599724433703E-012   1.2078462574178037E-016
 chl          35   1.7583115331741730E-005   6.8309489064286998E-004   2.5740370148566064E-002
 chl2c          36   3.7770393924465726E-002   3.7770393924465726E-002  0.69587337500000002        5.6690032503068255E-013   1.2551453533799156E-016
 chl          36   2.5807701026380126E-005   6.8327857734264239E-004   3.7770393924465726E-002
 chl2c          37   2.1353674699533250E-002   2.1353674699533250E-002  0.33194060000000003        5.6690032503068255E-013   1.1054348017582481E-016
 chl          37   1.4586586083701086E-005   6.8309489064286998E-004   2.1353674699533250E-002
 chl2c          38   2.1543295686358745E-002   2.1543295686358745E-002  0.38455722500000000        5.6690032503068255E-013   1.7106156214532341E-016
 chl          38   1.4716115210960239E-005   6.8309489064286998E-004   2.1543295686358745E-002
 chl2c          39   2.5670077108751441E-002   2.5670077108751441E-002  0.47091117500000002        1.5585599724433703E-012   1.3753634833664557E-016
 chl          39   1.7535098515396606E-005   6.8309489064286998E-004   2.5670077108751441E-002
 chl2c          40   3.7687445774703773E-002   3.7687445774703773E-002  0.66875547499999999        5.6690032503068255E-013   1.6539001830142150E-016
 chl          40   2.5751024332617574E-005   6.8327857734264239E-004   3.7687445774703773E-002
 chl2c          41   2.5582381488167241E-002   2.5582381488167241E-002  0.44304987499999998        1.5585599724433703E-012   9.9493530400052956E-017
 chl          41   1.7475194085043784E-005   6.8309489064286998E-004   2.5582381488167241E-002
 chl2c          42   3.7949995630725070E-002   3.7949995630725070E-002  0.76234377499999995        5.6690032503068255E-013   1.3941934083379176E-016
 chl          42   2.5930419023040370E-005   6.8327857729834861E-004   3.7949995630725070E-002
 chl2c          43   2.1185090152268007E-002   2.1185090152268007E-002  0.29539925000000000        5.6690032503068255E-013   1.7032463303697627E-016
 chl          43   1.4471426840822857E-005   6.8309489064286998E-004   2.1185090152268007E-002
 chl2c          44   3.7536352708156646E-002   3.7536352708156646E-002  0.62417262500000004        5.6690032503068255E-013   1.1904355508870517E-016
 chl          44   2.5647785675398289E-005   6.8327857729834861E-004   3.7536352708156646E-002
 chl2c          45  0.37662247895835993        4.6544927192009838E-002  0.37662252499999999        2.1588907365536412E-013   3.3255417905416539E-007
 chl          45   2.5726889107770750E-004   6.8309489064286998E-004  0.37662247895835993     
 chl2c          46  0.51876032589485410        3.7083195475449568E-002  0.51876034999999998        5.6690032503068255E-013   3.1644662990922552E-006
 chl          46   3.5445781743626356E-004   6.8327857729834861E-004  0.51876032589485410     
 chl2c          47   3.7519784612651236E-002   3.7519784612651236E-002  0.61962282499999999        5.6690032503068255E-013   1.5215480068728423E-016
 chl          47   2.5636465050672809E-005   6.8327857729834861E-004   3.7519784612651236E-002
 chl2c          48   3.7823212136301673E-002   3.7823212136301673E-002  0.71424949999999998        5.6690032503068255E-013   1.4630878184128305E-016
 chl          48   2.5843790577345840E-005   6.8327857729834861E-004   3.7823212136301673E-002
 chl2c          49   3.7152990741888416E-002   3.7152990741888416E-002  0.53276120000000005        5.6690032503068255E-013   1.3612347688554463E-016
 chl          49   2.5385842656496235E-005   6.8327857729834861E-004   3.7152990741888416E-002
 chl2c          50  0.38132568500376146        2.1533072915600981E-002  0.38132569999999999        5.6690032503068255E-013   2.7484415559868932E-006
 chl          50   2.6048162709696194E-004   6.8309489064286998E-004  0.38132568500376146     
 chl2c          51   2.0700971146093840E-002   2.0700971146093840E-002  0.22275920000000002        5.6690032503068255E-013   1.8186965933564020E-016
 chl          51   1.4140727621242179E-005   6.8309489064286998E-004   2.0700971146093840E-002
 chl2c          52   3.7581825176985564E-002   3.7581825176985564E-002  0.63698869999999996        5.6690032503068255E-013   1.6196955847931431E-016
 chl          52   2.5678856040870595E-005   6.8327857734264239E-004   3.7581825176985564E-002
 chl2c          53   3.7925801262726190E-002   3.7925801262726190E-002  0.75269794999999995        5.6690032503068255E-013   1.4498742829686844E-016
 chl          53   2.5913887531375342E-005   6.8327857734264239E-004   3.7925801262726190E-002
 chl2c          54   3.7082433371327092E-002   3.7082433371327092E-002  0.51861124999999997        5.6690032503068255E-013   1.1885170583587666E-016
 chl          54   2.5337632316721181E-005   6.8327857729834861E-004   3.7082433371327092E-002
 chl2c          55  0.57808277314555234        3.7357235588660491E-002  0.57808280000000001        5.6690032503068255E-013   3.5272850886624842E-006
 chl          55   3.9499157479557699E-004   6.8327857729834861E-004  0.57808277314555234     
 chl2c          56   3.7507394187257688E-002   3.7507394187257688E-002  0.61626080000000005        5.6690032503068255E-013   1.6239931214765396E-016
 chl          56   2.5627998940099127E-005   6.8327857734264239E-004   3.7507394187257688E-002
 chl2c          57  0.68163457209780620        3.7727617852646313E-002  0.68163462500000005        5.6690032503068255E-013   2.4894664649882197E-006
 chl          57   4.6574630066035768E-004   6.8327857729834861E-004  0.68163457209780620     
 chl2c          58  0.69416796704774530        3.7765358178394853E-002  0.69416802499999997        5.6690032503068255E-013   2.3568695615688291E-006
 chl          58   4.7431010096121766E-004   6.8327857734264239E-004  0.69416796704774530     
 chl2c          59   3.7173699120809672E-002   3.7173699120809672E-002  0.53705127500000005        5.6690032503068255E-013   1.6520804357657559E-016
 chl          59   2.5399992248183705E-005   6.8327857729834861E-004   3.7173699120809672E-002
 chl2c          60  0.64452146884844197        3.7607757740906807E-002  0.64452155000000000        5.6690032503068255E-013   1.4509574568252625E-006
 chl          60   4.4038771227300532E-004   6.8327857729834861E-004  0.64452146884844197     
 chl2c          61   3.7805373434125003E-002   3.7805373434125003E-002  0.70794139999999994        5.6690032503068255E-013   1.4188747236616226E-016
 chl          61   2.5831601774301716E-005   6.8327857729834861E-004   3.7805373434125003E-002
 chl2c          62   3.7956103087269030E-002   3.7956103087269030E-002  0.76481592499999995        5.6690032503068255E-013   1.1571899345877920E-016
 chl          62   2.5934592117258639E-005   6.8327857729834861E-004   3.7956103087269030E-002
 chl2c          63  0.72597898853546972        3.7855601011927406E-002  0.72597904999999996        5.6690032503068255E-013   2.4305260652457072E-006
 chl          63   4.9604589046716623E-004   6.8327857734264239E-004  0.72597898853546972     
 chl2c          64   2.5708982294816416E-002   2.5708982294816416E-002  0.48435739999999999        1.5585599724433703E-012   9.6790627147291330E-017
 chl          64   1.7561674449217100E-005   6.8309489064286998E-004   2.5708982294816416E-002
 chl2c          65   3.7953597170552002E-002   3.7953597170552002E-002  0.76379975000000000        5.6690032503068255E-013   1.2790122689503257E-016
 chl          65   2.5932879879730509E-005   6.8327857734264239E-004   3.7953597170552002E-002
 chl2c          66   3.1840477731474713E-002   3.1840477731474713E-002  0.35213202499999996        4.6022262091293082E-013   9.8388502287514947E-017
 chl          66   2.1750067653998455E-005   6.8309489064286998E-004   3.1840477731474713E-002
 chl2c          67   3.7937587124568600E-002   3.7937587124568600E-002  0.75736760000000003        5.6690032503068255E-013   1.3534667884286555E-016
 chl          67   2.5921940556607382E-005   6.8327857729834861E-004   3.7937587124568600E-002
 chl2c          68  0.72590772990842434        3.7855407263856986E-002  0.72590779999999999        5.6690032503068255E-013   2.1309525101122593E-006
 chl          68   4.9599720097385526E-004   6.8327857734264239E-004  0.72590772990842434     
 chl2c          69  0.45524215232216653        2.1732330561541505E-002  0.45524217500000003        5.6690032503068255E-013   2.5903598780938713E-006
 chl          69   3.1097358825653510E-004   6.8309489064286998E-004  0.45524215232216653     
 chl2c          70   3.2658010878182209E-002   3.2658010878182209E-002  0.48694062500000002        4.6022262091293082E-013   1.3476225246259982E-016
 chl          70   2.2308520369445536E-005   6.8309489064286998E-004   3.2658010878182209E-002
 chl2c          71   4.3481058864416305E-002   4.3481058864416305E-002  0.23986107500000001        2.1588907365536412E-013   1.0775462713607140E-016
 chl          71   2.9701689150024650E-005   6.8309489064286998E-004   4.3481058864416305E-002
 chl2c          72   3.7549776402781669E-002   3.7549776402781669E-002  0.62790522500000001        5.6690032503068255E-013   1.6291374241468668E-016
 chl          72   2.5656957800026983E-005   6.8327857734264239E-004   3.7549776402781669E-002
 chl2c          73   3.1852614277819484E-002   3.1852614277819484E-002  0.35362212500000001        4.6022262091293082E-013   1.1817302813650046E-016
 chl          73   2.1758358066796618E-005   6.8309489064286998E-004   3.1852614277819484E-002
 chl2c          74  0.64719583090837207        3.7616827685877569E-002  0.64719590000000005        5.6690032503068255E-013   1.7183940194515250E-006
 chl          74   4.4221504657649508E-004   6.8327857729834861E-004  0.64719583090837207     
 chl2c          75   3.7826830779512356E-002   3.7826830779512356E-002  0.71554212500000003        5.6690032503068255E-013   1.2833718211370277E-016
 chl          75   2.5846263120406078E-005   6.8327857734264239E-004   3.7826830779512356E-002
 chl2c          76  0.55513974725519866        3.7257729557919804E-002  0.55513977500000000        5.6690032503068255E-013   3.1484714415781568E-006
 chl          76   3.7931509673088618E-004   6.8327857734264239E-004  0.55513974725519866     
 chl2c          77  0.52973019360667661        3.7138172437479272E-002  0.52973029999999999        5.6690032503068255E-013   7.4760445023718076E-007
 chl          77   3.6195329303954877E-004   6.8327857729834861E-004  0.52973019360667661     
 chl2c          78  0.45117491441020469        4.7515248899399322E-002  0.45117492500000000        2.1588907365536412E-013   2.0749278521376730E-006
 chl          78   3.0819527881984496E-004   6.8309489064286998E-004  0.45117491441020469     
 prod   5.4345184713337295E-007   2.0280146821333166E-006   10.000000000000000     
 dcdom   1.1377480862581335E-012  -2.7063277307184275E-010
 chl2c           1  0.60826427384684612        3.7477407714772232E-002  0.60826437499999997        7.6336875827949967E-014   1.3960778878662956E-007
 chl           1   3.3221676608499674E-004   5.4617175522073331E-004  0.60826427384684612     
 chl2c           2  0.48302389498368192        3.2640259920490348E-002  0.48302390000000001        6.2345035260058447E-014   1.4498532454962565E-006
 chl           2   2.6367535622225590E-004   5.4588470458829716E-004  0.48302389498368192     
 chl2c           3   3.7922212503796585E-002   3.7922212503796585E-002  0.75128689999999998        7.6336875827949967E-014   1.4469533216000713E-016
 chl           3   2.0712041365052220E-005   5.4617175522073331E-004   3.7922212503796585E-002
 chl2c           4  0.77318741778152278        3.7976509103863923E-002  0.77318742499999993        7.6336875827949967E-014   3.1610281023131777E-006
 chl           4   4.2229312908432072E-004   5.4617175522073331E-004  0.77318741778152278     
 chl2c           5  0.48489678819333615        2.5710500362372445E-002  0.48489679999999996        2.0939757961994424E-013   2.0850337579373808E-006
 chl           5   2.6469773997873339E-004   5.4588470458829716E-004  0.48489678819333615     
 chl2c           6   3.1261039902252048E-002   3.1261039902252048E-002  0.29222855000000003        6.2345035260058447E-014   1.3156280413690415E-016
 chl           6   1.7064923532163831E-005   5.4588470458829716E-004   3.1261039902252048E-002
 chl2c           7  0.22770739953226127        4.3064391842467263E-002  0.22770740000000000        2.9292099952202168E-014   1.6235716383908200E-006
 chl           7   1.2430198652623779E-004   5.4588470458829716E-004  0.22770739953226127     
 chl2c           8  0.49578363775841733        4.7969800906495587E-002  0.49578364999999996        2.9292099952202168E-014   2.9408124872460696E-007
 chl           8   2.7064070463746496E-004   5.4588470458829716E-004  0.49578363775841733     
 chl2c           9  0.28700202082395110        2.4803669054600401E-002  0.28700202499999999        2.0939757961994424E-013   2.0651233930331240E-006
 chl           9   1.5667001335372685E-004   5.4588470458829716E-004  0.28700202082395110     
 chl2c          10  0.39094661922390872        2.5387016219684602E-002  0.39094662499999999        2.0939757961994424E-013   2.7704004187722300E-006
 chl          10   2.1341177974483692E-004   5.4588470458829716E-004  0.39094661922390872     
 chl2c          11   2.1820572217820047E-002   2.1820572217820047E-002  0.49737575000000001        7.6336875827949967E-014   1.3404674084872938E-016
 chl          11   1.1911516619072300E-005   5.4588470458829716E-004   2.1820572217820047E-002
 chl2c          12   4.5290941298723353E-002   4.5290941298723353E-002  0.30768942500000002        2.9292099952202168E-014   7.7104861483616225E-017
 chl          12   2.4723632111379506E-005   5.4588470458829716E-004   4.5290941298723353E-002
 chl2c          13   3.7935816987997487E-002   3.7935816987997487E-002  0.75666275000000005        7.6336875827949967E-014   1.2014685215101397E-016
 chl          13   2.0719471748780227E-005   5.4617175518681090E-004   3.7935816987997487E-002
 chl2c          14   4.6856526101924839E-002   4.6856526101924839E-002  0.39804095000000000        2.9292099952202168E-014   1.0402114858706025E-016
 chl          14   2.5578260909183078E-005   5.4588470458829716E-004   4.6856526101924839E-002
 chl2c          15  0.25607262423044092        2.0954299823745293E-002  0.25607262500000000        7.6336875827949967E-014   3.2522858684932507E-006
 chl          15   1.3978612883118425E-004   5.4588470458829716E-004  0.25607262423044092     
 chl2c          16   3.7823443882273475E-002   3.7823443882273475E-002  0.71433214999999994        7.6336875827949967E-014   1.5068761537185495E-016
 chl          16   2.0658096733674210E-005   5.4617175522073331E-004   3.7823443882273475E-002
 chl2c          17   3.7542254757581245E-002   3.7542254757581245E-002  0.62580860000000005        7.6336875827949967E-014   1.5061149960058032E-016
 chl          17   2.0504519175892075E-005   5.4617175522073331E-004   3.7542254757581245E-002
 chl2c          18   2.5694475239060960E-002   2.5694475239060960E-002  0.47925950000000000        2.0939757961994424E-013   1.4002120705126270E-016
 chl          18   1.4026221025426108E-005   5.4588470458829716E-004   2.5694475239060960E-002
 chl2c          19  0.63367129230390806        3.7570220750293731E-002  0.63367130000000005        7.6336875827949967E-014   1.9914169780384825E-006
 chl          19   3.4609336195061581E-004   5.4617175522073331E-004  0.63367129230390806     
 chl2c          20   3.7020645196759419E-002   3.7020645196759419E-002  0.50678202500000002        7.6336875827949967E-014   1.3239809164424526E-016
 chl          20   2.0219630765262271E-005   5.4617175518681090E-004   3.7020645196759419E-002
 chl2c          21  0.71973183728327239        3.7838475073783531E-002  0.71973185000000006        7.6336875827949967E-014   1.5547853925995577E-006
 chl          21   3.9309720083283308E-004   5.4617175518681090E-004  0.71973183728327239     
 chl2c          22  0.64616892002126747        3.7613353106285476E-002  0.64616892500000001        7.6336875827949967E-014   3.2009414266539656E-006
 chl          22   3.5291921321710130E-004   5.4617175522073331E-004  0.64616892002126747     
 chl2c          23   3.2286562315070731E-002   3.2286562315070731E-002  0.41564179999999995        6.2345035260058447E-014   1.0165634706010842E-016
 chl          23   1.7624740531534035E-005   5.4588470458829716E-004   3.2286562315070731E-002
 chl2c          24   3.7348402796863071E-002   3.7348402796863071E-002  0.57597492500000003        7.6336875827949967E-014   1.0731572074085301E-016
 chl          24   2.0398642708986702E-005   5.4617175518681090E-004   3.7348402796863071E-002
 chl2c          25   4.5426679235459781E-002   4.5426679235459781E-002  0.31406487500000002        2.9292099952202168E-014   8.0985337983636828E-017
 chl          25   2.4797729374876295E-005   5.4588470458829716E-004   4.5426679235459781E-002
 chl2c          26   4.7955660680174553E-002   4.7955660680174553E-002  0.49427735000000000        2.9292099952202168E-014   7.4509286571674903E-017
 chl          26   2.6178261663733703E-005   5.4588470458829716E-004   4.7955660680174553E-002
 chl2c          27   4.5333133499525620E-002   4.5333133499525620E-002  0.30964730000000001        2.9292099952202168E-014   1.0322598794439986E-016
 chl          27   2.4746664188450380E-005   5.4588470458829716E-004   4.5333133499525620E-002
 chl2c          28   3.1209236063453518E-002   3.1209236063453518E-002  0.28776342500000002        6.2345035260058447E-014   1.0265905320773752E-016
 chl          28   1.7036644608924755E-005   5.4588470458829716E-004   3.1209236063453518E-002
 chl2c          29  0.68676296847957630        3.7743217595736761E-002  0.68676297499999994        7.6336875827949967E-014   2.7608468562582371E-006
 chl          29   3.7509053589179466E-004   5.4617175518681090E-004  0.68676296847957630     
 chl2c          30   2.5380056985171612E-002   2.5380056985171612E-002  0.38930277499999999        2.0939757961994424E-013   1.5373624018203293E-016
 chl          30   1.3854584909784554E-005   5.4588470458829716E-004   2.5380056985171612E-002
 chl2c          31  0.63559384364470084        3.7576959810037038E-002  0.63559385000000002        7.6336875827949967E-014   2.4262064243252075E-006
 chl          31   3.4714340516935771E-004   5.4617175518681090E-004  0.63559384364470084     
 chl2c          32  0.24722667432225034        2.0893126428578448E-002  0.24722667500000001        7.6336875827949967E-014   3.4421178273633255E-006
 chl          32   1.3495726007874877E-004   5.4588470458829716E-004  0.24722667432225034     
 chl2c          33  0.60343136865970848        3.7458922634011876E-002  0.60343137499999999        7.6336875827949967E-014   2.1920523634333520E-006
 chl          33   3.2957716975565252E-004   5.4617175518681090E-004  0.60343136865970848     
 chl2c          34  0.38241018928658255        2.5350269098008315E-002  0.38241020000000003        2.0939757961994424E-013   1.4291327035248595E-006
 chl          34   2.0875187321026090E-004   5.4588470458829716E-004  0.38241018928658255     
 chl2c          35   2.5740370148566064E-002   2.5740370148566064E-002  0.49574644999999995        2.0939757961994424E-013   1.1045666855551992E-016
 chl          35   1.4051274354543408E-005   5.4588470458829716E-004   2.5740370148566064E-002
 chl2c          36   3.7770393924465726E-002   3.7770393924465726E-002  0.69587337500000002        7.6336875827949967E-014   1.1440884777183635E-016
 chl          36   2.0629122345103966E-005   5.4617175522073331E-004   3.7770393924465726E-002
 chl2c          37   2.1353674699533250E-002   2.1353674699533250E-002  0.33194060000000003        7.6336875827949967E-014   1.0102123371863669E-016
 chl          37   1.1656644405229303E-005   5.4588470458829716E-004   2.1353674699533250E-002
 chl2c          38   2.1543295686358745E-002   2.1543295686358745E-002  0.38455722500000000        7.6336875827949967E-014   1.5698286358227091E-016
 chl          38   1.1760155601606281E-005   5.4588470458829716E-004   2.1543295686358745E-002
 chl2c          39   2.5670077108751441E-002   2.5670077108751441E-002  0.47091117500000002        2.0939757961994424E-013   1.2592038508391206E-016
 chl          39   1.4012902459269590E-005   5.4588470458829716E-004   2.5670077108751441E-002
 chl2c          40   3.7687445774703773E-002   3.7687445774703773E-002  0.66875547499999999        7.6336875827949967E-014   1.5098150671331945E-016
 chl          40   2.0583818408556168E-005   5.4617175522073331E-004   3.7687445774703773E-002
 chl2c          41   2.5582381488167241E-002   2.5582381488167241E-002  0.44304987499999998        2.0939757961994424E-013   9.0855898899269984E-017
 chl          41   1.3965030761333296E-005   5.4588470458829716E-004   2.5582381488167241E-002
 chl2c          42   3.7949995630725070E-002   3.7949995630725070E-002  0.76234377499999995        7.6336875827949967E-014   1.2714910107736301E-016
 chl          42   2.0727215722964916E-005   5.4617175518681090E-004   3.7949995630725070E-002
 chl2c          43  0.29539917560624418        2.1185090152268007E-002  0.29539925000000000        7.6336875827949967E-014   4.4769945802389972E-008
 chl          43   1.6125389171144113E-004   5.4588470458829716E-004  0.29539917560624418     
 chl2c          44   3.7536352708156646E-002   3.7536352708156646E-002  0.62417262500000004        7.6336875827949967E-014   1.0848444959494644E-016
 chl          44   2.0501295641925118E-005   5.4617175518681090E-004   3.7536352708156646E-002
 chl2c          45  0.37662250707815315        4.6544927192009838E-002  0.37662252499999999        2.9292099952202168E-014   1.1591784855085034E-007
 chl          45   2.0559246601766149E-004   5.4588470458829716E-004  0.37662250707815315     
 chl2c          46  0.51876034630809131        3.7083195475449568E-002  0.51876034999999998        7.6336875827949967E-014   2.7821912431515913E-006
 chl          46   2.8333224886440810E-004   5.4617175518681090E-004  0.51876034630809131     
 chl2c          47   3.7519784612651236E-002   3.7519784612651236E-002  0.61962282499999999        7.6336875827949967E-014   1.3882996014498160E-016
 chl          47   2.0492246616122824E-005   5.4617175518681090E-004   3.7519784612651236E-002
 chl2c          48   3.7823212136301673E-002   3.7823212136301673E-002  0.71424949999999998        7.6336875827949967E-014   1.3346660472949124E-016
 chl          48   2.0657970159286971E-005   5.4617175518681090E-004   3.7823212136301673E-002
 chl2c          49   3.7152990741888416E-002   3.7152990741888416E-002  0.53276120000000005        7.6336875827949967E-014   1.2412803883840832E-016
 chl          49   2.0291914163936532E-005   5.4617175518681090E-004   3.7152990741888416E-002
 chl2c          50  0.38132569780386016        2.1533072915600981E-002  0.38132569999999999        7.6336875827949967E-014   2.5271821447837534E-006
 chl          50   2.0815986589758649E-004   5.4588470458829716E-004  0.38132569780386016     
 chl2c          51   2.0700971146093840E-002   2.0700971146093840E-002  0.22275920000000002        7.6336875827949967E-014   1.6703069466909957E-016
 chl          51   1.1300343518776299E-005   5.4588470458829716E-004   2.0700971146093840E-002
 chl2c          52   3.7581825176985564E-002   3.7581825176985564E-002  0.63698869999999996        7.6336875827949967E-014   1.4783989633673000E-016
 chl          52   2.0526131421312953E-005   5.4617175522073331E-004   3.7581825176985564E-002
 chl2c          53   3.7925801262726190E-002   3.7925801262726190E-002  0.75269794999999995        7.6336875827949967E-014   1.3225468374403961E-016
 chl          53   2.0714001443815867E-005   5.4617175522073331E-004   3.7925801262726190E-002
 chl2c          54   3.7082433371327092E-002   3.7082433371327092E-002  0.51861124999999997        7.6336875827949967E-014   1.0830884979151365E-016
 chl          54   2.0253377721015687E-005   5.4617175518681090E-004   3.7082433371327092E-002
 chl2c          55  0.57808279598392076        3.7357235588660491E-002  0.57808280000000001        7.6336875827949967E-014   3.1760125257673659E-006
 chl          55   3.1573249532583714E-004   5.4617175518681090E-004  0.57808279598392076     
 chl2c          56   3.7507394187257688E-002   3.7507394187257688E-002  0.61626080000000005        7.6336875827949967E-014   1.4823456830550270E-016
 chl          56   2.0485479317010461E-005   5.4617175522073331E-004   3.7507394187257688E-002
 chl2c          57  0.68163461632354438        3.7727617852646313E-002  0.68163462500000005        7.6336875827949967E-014   2.0439267000838947E-006
 chl          57   3.7228957479351865E-004   5.4617175518681090E-004  0.68163461632354438     
 chl2c          58  0.69416801698642283        3.7765358178394853E-002  0.69416802499999997        7.6336875827949967E-014   2.2951293573444090E-006
 chl          58   3.7913496425557035E-004   5.4617175522073331E-004  0.69416801698642283     
 chl2c          59  0.53705037083523532        3.7173699120809672E-002  0.53705127500000005        7.6336875827949967E-014   1.2175521740203065E-008
 chl          59   2.9332174366280818E-004   5.4617175518681090E-004  0.53705037083523532     
 chl2c          60  0.64452153909278709        3.7607757740906807E-002  0.64452155000000000        7.6336875827949967E-014   1.4536688276679586E-006
 chl          60   3.5201946026201228E-004   5.4617175518681090E-004  0.64452153909278709     
 chl2c          61   3.7805373434125003E-002   3.7805373434125003E-002  0.70794139999999994        7.6336875827949967E-014   1.2941194928144310E-016
 chl          61   2.0648227164008886E-005   5.4617175518681090E-004   3.7805373434125003E-002
 chl2c          62   3.7956103087269030E-002   3.7956103087269030E-002  0.76481592499999995        7.6336875827949967E-014   1.0544183741994621E-016
 chl          62   2.0730551443225257E-005   5.4617175518681090E-004   3.7956103087269030E-002
 chl2c          63  0.72597904097974553        3.7855601011927406E-002  0.72597904999999996        7.6336875827949967E-014   2.2301484436482230E-006
 chl          63   3.9650924706537231E-004   5.4617175522073331E-004  0.72597904097974553     
 chl2c          64   2.5708982294816416E-002   2.5708982294816416E-002  0.48435739999999999        2.0939757961994424E-013   8.8371763615793298E-017
 chl          64   1.4034140205271621E-005   5.4588470458829716E-004   2.5708982294816416E-002
 chl2c          65   3.7953597170552002E-002   3.7953597170552002E-002  0.76379975000000000        7.6336875827949967E-014   1.1659468273893557E-016
 chl          65   2.0729182783581044E-005   5.4617175522073331E-004   3.7953597170552002E-002
 chl2c          66   3.1840477731474713E-002   3.1840477731474713E-002  0.35213202499999996        6.2345035260058447E-014   8.0574958876213224E-017
 chl          66   1.7381229780396328E-005   5.4588470458829716E-004   3.1840477731474713E-002
 chl2c          67   3.7937587124568600E-002   3.7937587124568600E-002  0.75736760000000003        7.6336875827949967E-014   1.2341612031768812E-016
 chl          67   2.0720438547378189E-005   5.4617175518681090E-004   3.7937587124568600E-002
 chl2c          68  0.72590779053576315        3.7855407263856986E-002  0.72590779999999999        7.6336875827949967E-014   2.1251114316132153E-006
 chl          68   3.9647033208532219E-004   5.4617175522073331E-004  0.72590779053576315     
 chl2c          69  0.45524217158374264        2.1732330561541505E-002  0.45524217500000003        7.6336875827949967E-014   2.3154679547497725E-006
 chl          69   2.4850973835112623E-004   5.4588470458829716E-004  0.45524217158374264     
 chl2c          70   3.2658010878182209E-002   3.2658010878182209E-002  0.48694062500000002        6.2345035260058447E-014   1.2354068774698296E-016
 chl          70   1.7827508620677890E-005   5.4588470458829716E-004   3.2658010878182209E-002
 chl2c          71   4.3481058864416305E-002   4.3481058864416305E-002  0.23986107500000001        2.9292099952202168E-014   8.8577075644612757E-017
 chl          71   2.3735644973388254E-005   5.4588470458829716E-004   4.3481058864416305E-002
 chl2c          72   3.7549776402781669E-002   3.7549776402781669E-002  0.62790522500000001        7.6336875827949967E-014   1.4870702209503177E-016
 chl          72   2.0508627286053339E-005   5.4617175522073331E-004   3.7549776402781669E-002
 chl2c          73   3.1852614277819484E-002   3.1852614277819484E-002  0.35362212500000001        6.2345035260058447E-014   9.7549207545092581E-017
 chl          73   1.7387854935412464E-005   5.4588470458829716E-004   3.1852614277819484E-002
 chl2c          74  0.64719589076162487        3.7616827685877569E-002  0.64719590000000005        7.6336875827949967E-014   1.7305346541883703E-006
 chl          74   3.5348011560696821E-004   5.4617175518681090E-004  0.64719589076162487     
 chl2c          75   3.7826830779512356E-002   3.7826830779512356E-002  0.71554212500000003        7.6336875827949967E-014   1.1699399245860366E-016
 chl          75   2.0659946561283924E-005   5.4617175522073331E-004   3.7826830779512356E-002
 chl2c          76  0.55513977084572508        3.7257729557919804E-002  0.55513977500000000        7.6336875827949967E-014   2.8314821582004171E-006
 chl          76   3.0320166303564533E-004   5.4617175522073331E-004  0.55513977084572508     
 chl2c          77  0.52973028707994219        3.7138172437479272E-002  0.52973029999999999        7.6336875827949967E-014   8.2899048689205574E-007
 chl          77   2.8932372067006526E-004   5.4617175518681090E-004  0.52973028707994219     
 chl2c          78  0.45117492318013058        4.7515248899399322E-002  0.45117492500000000        2.9292099952202168E-014   1.6382123141673284E-006
 chl          78   2.4628948965783323E-004   5.4588470458829716E-004  0.45117492318013058     
 prod   4.2821046805089577E-007   2.7484251915652367E-007   10.000000000000000     
 dcdom   1.1803930966388450E-012  -2.5418307681391381E-010
 chl2c           1  0.60826436628475977        3.7477407714772232E-002  0.60826437499999997        1.1082918379084781E-014   2.3524994896749386E-007
 chl           1   2.3874089453398726E-004   3.9249528291818495E-004  0.60826436628475977     
 chl2c           2  0.48302389872409079        3.2640259920490348E-002  0.48302390000000001        9.0786242506722886E-015   8.3005621205968658E-007
 chl           2   1.8942927524094689E-004   3.9217371177973791E-004  0.48302389872409079     
 chl2c           3   3.7922212503796585E-002   3.7922212503796585E-002  0.75128689999999998        1.1082918379084781E-014   1.2522692638935502E-016
 chl           3   1.4884289525561171E-005   3.9249528291818495E-004   3.7922212503796585E-002
 chl2c           4  0.77318742379148719        3.7976509103863923E-002  0.77318742499999993        1.1082918379084781E-014   2.7412112351084739E-006
 chl           4   3.0347241664982233E-004   3.9249528291818495E-004  0.77318742379148719     
 chl2c           5  0.48489679789209456        2.5710500362372445E-002  0.48489679999999996        3.0393601165241197E-014   1.6951169955348450E-006
 chl           5   1.9016377705945210E-004   3.9217371177973791E-004  0.48489679789209456     
 chl2c           6   3.1261039902252048E-002   3.1261039902252048E-002  0.29222855000000003        9.0786242506722886E-015   1.0544255558174187E-016
 chl           6   1.2259758052560681E-005   3.9217371177973791E-004   3.1261039902252048E-002
 chl2c           7  0.22770739988743030        4.3064391842467263E-002  0.22770740000000000        4.2677047887451182E-015   9.8287244964377876E-007
 chl           7   8.9300856213566615E-005   3.9217371177973791E-004  0.22770739988743030     
 chl2c           8  0.49578364800116526        4.7969800906495587E-002  0.49578364999999996        4.2677047887451182E-015   2.6240487848250674E-007
 chl           8   1.9443331347631602E-004   3.9217371177973791E-004  0.49578364800116526     
 chl2c           9  0.28700202434804079        2.4803669054600401E-002  0.28700202499999999        3.0393601165241197E-014   1.9200018278367726E-006
 chl           9   1.1255464917686987E-004   3.9217371177973791E-004  0.28700202434804079     
 chl2c          10  0.39094662400116126        2.5387016219684602E-002  0.39094662499999999        3.0393601165241197E-014   2.3253680853848587E-006
 chl          10   1.5331898864229298E-004   3.9217371177973791E-004  0.39094662400116126     
 chl2c          11   2.1820572217820047E-002   2.1820572217820047E-002  0.49737575000000001        1.1082918379084781E-014   1.1612330138112175E-016
 chl          11   8.5574547998203148E-006   3.9217371177973791E-004   2.1820572217820047E-002
 chl2c          12   4.5290941298723353E-002   4.5290941298723353E-002  0.30768942500000002        4.2677047887451182E-015   4.7364711741975319E-017
 chl          12   1.7761916559118561E-005   3.9217371177973791E-004   4.5290941298723353E-002
 chl2c          13   3.7935816987997487E-002   3.7935816987997487E-002  0.75666275000000005        1.1082918379084781E-014   1.0396144026490767E-016
 chl          13   1.4889629220536981E-005   3.9249528289447177E-004   3.7935816987997487E-002
 chl2c          14   4.6856526101924839E-002   4.6856526101924839E-002  0.39804095000000000        4.2677047887451182E-015   8.2281472557158614E-017
 chl          14   1.8375897762496037E-005   3.9217371177973791E-004   4.6856526101924839E-002
 chl2c          15  0.25607262486824933        2.0954299823745293E-002  0.25607262500000000        1.1082918379084781E-014   2.7580206737725474E-006
 chl          15   1.0042495177976176E-004   3.9217371177973791E-004  0.25607262486824933     
 chl2c          16   3.7823443882273475E-002   3.7823443882273475E-002  0.71433214999999994        1.1082918379084781E-014   1.3041966354431063E-016
 chl          16   1.4845523307513019E-005   3.9249528291818495E-004   3.7823443882273475E-002
 chl2c          17   3.7542254757581245E-002   3.7542254757581245E-002  0.62580860000000005        1.1082918379084781E-014   1.3035369902307270E-016
 chl          17   1.4735157902463425E-005   3.9249528291818495E-004   3.7542254757581245E-002
 chl2c          18   2.5694475239060960E-002   2.5694475239060960E-002  0.47925950000000000        3.0393601165241197E-014   1.2131599191397665E-016
 chl          18   1.0076697726735105E-005   3.9217371177973791E-004   2.5694475239060960E-002
 chl2c          19  0.63367129874247663        3.7570220750293731E-002  0.63367130000000005        1.1082918379084781E-014   1.7694411208643957E-006
 chl          19   2.4871299567706207E-004   3.9249528291818495E-004  0.63367129874247663     
 chl2c          20   3.7020645196759419E-002   3.7020645196759419E-002  0.50678202500000002        1.1082918379084781E-014   1.1457281262608592E-016
 chl          20   1.4530428609437956E-005   3.9249528289447177E-004   3.7020645196759419E-002
 chl2c          21  0.71973184804462320        3.7838475073783531E-002  0.71973185000000006        1.1082918379084781E-014   1.4680305683418238E-006
 chl          21   2.8249135530643537E-004   3.9249528289447177E-004  0.71973184804462320     
 chl2c          22  0.64616892415431049        3.7613353106285476E-002  0.64616892500000001        1.1082918379084781E-014   2.7359322924234514E-006
 chl          22   2.5361825469888530E-004   3.9249528291818495E-004  0.64616892415431049     
 chl2c          23   3.2286562315070731E-002   3.2286562315070731E-002  0.41564179999999995        9.0786242506722886E-015   6.3719332262463467E-017
 chl          23   1.2661940983709097E-005   3.9217371177973791E-004   3.2286562315070731E-002
 chl2c          24   3.7348402796863071E-002   3.7348402796863071E-002  0.57597492500000003        1.1082918379084781E-014   9.2850617260074656E-017
 chl          24   1.4659071921411451E-005   3.9249528289447177E-004   3.7348402796863071E-002
 chl2c          25   4.5426679235459781E-002   4.5426679235459781E-002  0.31406487500000002        4.2677047887451182E-015   4.9906021397325267E-017
 chl          25   1.7815149409597810E-005   3.9217371177973791E-004   4.5426679235459781E-002
 chl2c          26   4.7955660680174553E-002   4.7955660680174553E-002  0.49427735000000000        4.2677047887451182E-015   4.5673817466004577E-017
 chl          26   1.8806949449793684E-005   3.9217371177973791E-004   4.7955660680174553E-002
 chl2c          27   4.5333133499525620E-002   4.5333133499525620E-002  0.30964730000000001        4.2677047887451182E-015   8.1621395592996508E-017
 chl          27   1.7778463231115343E-005   3.9217371177973791E-004   4.5333133499525620E-002
 chl2c          28   3.1209236063453518E-002   3.1209236063453518E-002  0.28776342500000002        9.0786242506722886E-015   8.1151067899072223E-017
 chl          28   1.2239441948814622E-005   3.9217371177973791E-004   3.1209236063453518E-002
 chl2c          29  0.68676297388160479        3.7743217595736761E-002  0.68676297499999994        1.1082918379084781E-014   2.3369133830689396E-006
 chl          29   2.6955122771510917E-004   3.9249528289447177E-004  0.68676297388160479     
 chl2c          30   2.5380056985171612E-002   2.5380056985171612E-002  0.38930277499999999        3.0393601165241197E-014   1.3324500500500360E-016
 chl          30   9.9533911530560150E-006   3.9217371177973791E-004   2.5380056985171612E-002
 chl2c          31  0.63559384885635739        3.7576959810037038E-002  0.63559385000000002        1.1082918379084781E-014   1.9574612746388282E-006
 chl          31   2.4946758751286211E-004   3.9249528289447177E-004  0.63559384885635739     
 chl2c          32  0.24722667488502076        2.0893126428578448E-002  0.24722667500000001        1.1082918379084781E-014   2.9457463880251473E-006
 chl          32   9.6955802740621096E-005   3.9217371177973791E-004  0.24722667488502076     
 chl2c          33  0.60343137395343249        3.7458922634011876E-002  0.60343137499999999        1.1082918379084781E-014   1.9280249722468461E-006
 chl          33   2.3684396782725227E-004   3.9249528289447177E-004  0.60343137395343249     
 chl2c          34  0.38241019789916592        2.5350269098008315E-002  0.38241020000000003        3.0393601165241197E-014   1.0578384207181998E-006
 chl          34   1.4997122673254001E-004   3.9217371177973791E-004  0.38241019789916592     
 chl2c          35   2.5740370148566064E-002   2.5740370148566064E-002  0.49574644999999995        3.0393601165241197E-014   9.5639912322594664E-017
 chl          35   1.0094696503747517E-005   3.9217371177973791E-004   2.5740370148566064E-002
 chl2c          36   3.7770393924465726E-002   3.7770393924465726E-002  0.69587337500000002        1.1082918379084781E-014   9.8992406808559182E-017
 chl          36   1.4824701449314470E-005   3.9249528291818495E-004   3.7770393924465726E-002
 chl2c          37   2.1353674699533250E-002   2.1353674699533250E-002  0.33194060000000003        1.1082918379084781E-014   8.7454997647377123E-017
 chl          37   8.3743498670530346E-006   3.9217371177973791E-004   2.1353674699533250E-002
 chl2c          38   2.3081231936556538E-002   2.1543295686358745E-002  0.38455722500000000        1.1082918379084781E-014   1.3607070659453042E-016
 chl          38   9.0518524010084052E-006   3.9217371177973791E-004   2.3081231936556538E-002
 chl2c          39   2.5670077108751441E-002   2.5670077108751441E-002  0.47091117500000002        3.0393601165241197E-014   1.0906370472227086E-016
 chl          39   1.0067129421411136E-005   3.9217371177973791E-004   2.5670077108751441E-002
 chl2c          40   3.7687445774703773E-002   3.7687445774703773E-002  0.66875547499999999        1.1082918379084781E-014   1.3067436097637925E-016
 chl          40   1.4792144691806112E-005   3.9249528291818495E-004   3.7687445774703773E-002
 chl2c          41   2.5582381488167241E-002   2.5582381488167241E-002  0.44304987499999998        3.0393601165241197E-014   7.8641338418793618E-017
 chl          41   1.0032737504379801E-005   3.9217371177973791E-004   2.5582381488167241E-002
 chl2c          42   3.7949995630725070E-002   3.7949995630725070E-002  0.76234377499999995        1.1082918379084781E-014   1.1002607772470548E-016
 chl          42   1.4895194270925404E-005   3.9249528289447177E-004   3.7949995630725070E-002
 chl2c          43  0.29539924765982811        2.1185090152268007E-002  0.29539925000000000        1.1082918379084781E-014   2.0663084412273778E-007
 chl          43   1.1584781941169685E-004   3.9217371177973791E-004  0.29539924765982811     
 chl2c          44   3.7536352708156646E-002   3.7536352708156646E-002  0.62417262500000004        1.1082918379084781E-014   9.3862538822275236E-017
 chl          44   1.4732841375014614E-005   3.9249528289447177E-004   3.7536352708156646E-002
 chl2c          45   4.6544927192009838E-002   4.6544927192009838E-002  0.37662252499999999        4.2677047887451182E-015   5.9209907292684553E-017
 chl          45   1.8253696861408154E-005   3.9217371177973791E-004   4.6544927192009838E-002
 chl2c          46  0.51876034935521198        3.7083195475449568E-002  0.51876034999999998        1.1082918379084781E-014   2.3128143857601766E-006
 chl          46   2.0361099007460892E-004   3.9249528289447177E-004  0.51876034935521198     
 chl2c          47   3.7519784612651236E-002   3.7519784612651236E-002  0.61962282499999999        1.1082918379084781E-014   1.2014489277824374E-016
 chl          47   1.4726338475682196E-005   3.9249528289447177E-004   3.7519784612651236E-002
 chl2c          48   3.7823212136301673E-002   3.7823212136301673E-002  0.71424949999999998        1.1082918379084781E-014   1.1549843487338592E-016
 chl          48   1.4845432347415343E-005   3.9249528289447177E-004   3.7823212136301673E-002
 chl2c          49   3.7152990741888416E-002   3.7152990741888416E-002  0.53276120000000005        1.1082918379084781E-014   1.0740943168939277E-016
 chl          49   1.4582373611613185E-005   3.9249528289447177E-004   3.7152990741888416E-002
 chl2c          50  0.38132569963130103        2.1533072915600981E-002  0.38132569999999999        1.1082918379084781E-014   2.1854678032745686E-006
 chl          50   1.4954591502141276E-004   3.9217371177973791E-004  0.38132569963130103     
 chl2c          51   2.3389933723292490E-002   2.0700971146093840E-002  0.22275920000000002        1.1082918379084781E-014   1.4482067566530459E-016
 chl          51   9.1729171265456802E-006   3.9217371177973791E-004   2.3389933723292490E-002
 chl2c          52   3.7581825176985564E-002   3.7581825176985564E-002  0.63698869999999996        1.1082918379084781E-014   1.2795181828803024E-016
 chl          52   1.4750689105422716E-005   3.9249528291818495E-004   3.7581825176985564E-002
 chl2c          53   3.7925801262726190E-002   3.7925801262726190E-002  0.75269794999999995        1.1082918379084781E-014   1.1444858414573520E-016
 chl          53   1.4885698096512572E-005   3.9249528291818495E-004   3.7925801262726190E-002
 chl2c          54   3.7082433371327092E-002   3.7082433371327092E-002  0.51861124999999997        1.1082918379084781E-014   9.3710497693649200E-017
 chl          54   1.4554680176494427E-005   3.9249528289447177E-004   3.7082433371327092E-002
 chl2c          55  0.57808279931755879        3.7357235588660491E-002  0.57808280000000001        1.1082918379084781E-014   2.7135570882346420E-006
 chl          55   2.2689477185457339E-004   3.9249528289447177E-004  0.57808279931755879     
 chl2c          56   3.7507394187257688E-002   3.7507394187257688E-002  0.61626080000000005        1.1082918379084781E-014   1.2829383228517867E-016
 chl          56   1.4721475293051592E-005   3.9249528291818495E-004   3.7507394187257688E-002
 chl2c          57  0.68163462336786607        3.7727617852646313E-002  0.68163462500000005        1.1082918379084781E-014   1.5775082408251443E-006
 chl          57   2.6753837432943729E-004   3.9249528289447177E-004  0.68163462336786607     
 chl2c          58  0.69416802371945718        3.7765358178394853E-002  0.69416802499999997        1.1082918379084781E-014   2.0852553453060769E-006
 chl          58   2.7245767486252566E-004   3.9249528291818495E-004  0.69416802371945718     
 chl2c          59  0.53705126186296448        3.7173699120809672E-002  0.53705127500000005        1.1082918379084781E-014   1.2166292606125710E-007
 chl          59   2.1079008695373727E-004   3.9249528289447177E-004  0.53705126186296448     
 chl2c          60  0.64452154829827535        3.7607757740906807E-002  0.64452155000000000        1.1082918379084781E-014   1.3527256484973640E-006
 chl          60   2.5297166743091452E-004   3.9249528289447177E-004  0.64452154829827535     
 chl2c          61   3.7805373434125003E-002   3.7805373434125003E-002  0.70794139999999994        1.1082918379084781E-014   1.1198611879479594E-016
 chl          61   1.4838430740958041E-005   3.9249528289447177E-004   3.7805373434125003E-002
 chl2c          62   3.7956103087269030E-002   3.7956103087269030E-002  0.76481592499999995        1.1082918379084781E-014   9.1228196315061682E-017
 chl          62   1.4897591418809391E-005   3.9249528289447177E-004   3.7956103087269030E-002
 chl2c          63  0.72597904848933059        3.7855601011927406E-002  0.72597904999999996        1.1082918379084781E-014   1.9333162099273114E-006
 chl          63   2.8494335202949454E-004   3.9249528291818495E-004  0.72597904848933059     
 chl2c          64   2.5708982294816416E-002   2.5708982294816416E-002  0.48435739999999999        3.0393601165241197E-014   7.6488162481326673E-017
 chl          64   1.0082387012637718E-005   3.9217371177973791E-004   2.5708982294816416E-002
 chl2c          65  0.76379970801045938        3.7953597170552002E-002  0.76379975000000000        1.1082918379084781E-014   7.6991364375355399E-008
 chl          65   2.9978778248839231E-004   3.9249528291818495E-004  0.76379970801045938     
 chl2c          66   3.1840477731474713E-002   3.1840477731474713E-002  0.35213202499999996        9.0786242506722886E-015   4.9636504664693993E-017
 chl          66   1.2486998336792528E-005   3.9217371177973791E-004   3.1840477731474713E-002
 chl2c          67   3.7937587124568600E-002   3.7937587124568600E-002  0.75736760000000003        1.1082918379084781E-014   1.0679283870863568E-016
 chl          67   1.4890323990791223E-005   3.9249528289447177E-004   3.7937587124568600E-002
 chl2c          68  0.72590779851627407        3.7855407263856986E-002  0.72590779999999999        1.1082918379084781E-014   1.9680375149913262E-006
 chl          68   2.8491538675116181E-004   3.9249528291818495E-004  0.72590779851627407     
 chl2c          69  0.45524217441222387        2.1732330561541505E-002  0.45524217500000003        1.1082918379084781E-014   1.9538766462160127E-006
 chl          69   1.7853401329792065E-004   3.9217371177973791E-004  0.45524217441222387     
 chl2c          70   3.2658010878182209E-002   3.2658010878182209E-002  0.48694062500000002        9.0786242506722886E-015   9.8636511798236326E-017
 chl          70   1.2807613345439775E-005   3.9217371177973791E-004   3.2658010878182209E-002
 chl2c          71   4.3481058864416305E-002   4.3481058864416305E-002  0.23986107500000001        4.2677047887451182E-015   5.4924668904175522E-017
 chl          71   1.7052128246971418E-005   3.9217371177973791E-004   4.3481058864416305E-002
 chl2c          72   3.7549776402781669E-002   3.7549776402781669E-002  0.62790522500000001        1.1082918379084781E-014   1.2870325466357134E-016
 chl          72   1.4738110112724376E-005   3.9249528291818495E-004   3.7549776402781669E-002
 chl2c          73   3.1852614277819484E-002   3.1852614277819484E-002  0.35362212500000001        9.0786242506722886E-015   6.0937138791293425E-017
 chl          73   1.2491757971220742E-005   3.9217371177973791E-004   3.1852614277819484E-002
 chl2c          74  0.64719589856379112        3.7616827685877569E-002  0.64719590000000005        1.1082918379084781E-014   1.6161364137842078E-006
 chl          74   2.5402133729493704E-004   3.9249528289447177E-004  0.64719589856379112     
 chl2c          75   3.7826830779512356E-002   3.7826830779512356E-002  0.71554212500000003        1.1082918379084781E-014   1.0123103687825483E-016
 chl          75   1.4846852648703009E-005   3.9249528291818495E-004   3.7826830779512356E-002
 chl2c          76  0.55513977429372408        3.7257729557919804E-002  0.55513977500000000        1.1082918379084781E-014   2.4179898428739756E-006
 chl          76   2.1788974277055256E-004   3.9249528291818495E-004  0.55513977429372408     
 chl2c          77  0.52973029813721551        3.7138172437479272E-002  0.52973029999999999        1.1082918379084781E-014   8.3477831538532761E-007
 chl          77   2.0791664322513927E-004   3.9249528289447177E-004  0.52973029813721551     
 chl2c          78  0.45117492460590186        4.7515248899399322E-002  0.45117492500000000        4.2677047887451182E-015   1.1021731905037324E-006
 chl          78   1.7693894484463994E-004   3.9217371177973791E-004  0.45117492460590186     
 prod   2.4751666101737645E-007   4.0018817005877000E-008   10.000000000000000     
 dcdom   1.2043072264403728E-012  -2.3616339683560866E-010
 chl2c           1  0.60826437392467492        3.7477407714772232E-002  0.60826437499999997        1.7387946495283280E-015   2.9913229882663229E-007
 chl           1   1.4527303101689388E-004   2.3883205600149768E-004  0.60826437392467492     
 chl2c           2  0.48302389924732686        3.2640259920490348E-002  0.48302390000000001        1.4251680819021937E-015   2.2088535903577887E-007
 chl           2   1.1520631278372811E-004   2.3851058501090448E-004  0.48302389924732686     
 chl2c           3  0.10525688684499730        3.7922212503796585E-002  0.75128689999999998        1.7387946495283280E-015   1.0641967829348172E-016
 chl           3   2.5138718693507700E-005   2.3883205600149768E-004  0.10525688684499730     
 chl2c           4  0.77318742477644853        3.7976509103863923E-002  0.77318742499999993        1.7387946495283280E-015   2.3249326654049018E-006
 chl           4   1.8466194233386253E-004   2.3883205600149768E-004  0.77318742477644853     
 chl2c           5  0.48489679957949211        2.5710500362372445E-002  0.48489679999999996        4.7794766615943202E-015   1.3362106580529151E-006
 chl           5   1.1565301933761996E-004   2.3851058501090448E-004  0.48489679957949211     
 chl2c           6   7.5748897131593246E-002   3.1261039902252048E-002  0.29222855000000003        1.4251680819021937E-015   7.2864831689004010E-017
 chl           6   1.8066913768787131E-005   2.3851058501090448E-004   7.5748897131593246E-002
 chl2c           7  0.22770739993781994        4.3064391842467263E-002  0.22770740000000000        6.6954282184218942E-016   2.7915881037401094E-007
 chl           7   5.4310625170481430E-005   2.3851058501090448E-004  0.22770739993781994     
 chl2c           8  0.49578364916429402        4.7969800906495587E-002  0.49578364999999996        6.6954282184218942E-016   9.8464409453734588E-008
 chl           8   1.1824964820101679E-004   2.3851058501090448E-004  0.49578364916429402     
 chl2c           9  0.28700202488434812        2.4803669054600401E-002  0.28700202499999999        4.7794766615943202E-015   1.7020310543910840E-006
 chl           9   6.8453020854480039E-005   2.3851058501090448E-004  0.28700202488434812     
 chl2c          10  0.39094662480701231        2.5387016219684602E-002  0.39094662499999999        4.7794766615943202E-015   1.8925864831727686E-006
 chl          10   9.3244908190759092E-005   2.3851058501090448E-004  0.39094662480701231     
 chl2c          11   9.1820115163755517E-002   2.1820572217820047E-002  0.49737575000000001        1.7387946495283280E-015   9.7901715018925634E-017
 chl          11   2.1900069383475951E-005   2.3851058501090448E-004   9.1820115163755517E-002
 chl2c          12   4.5290941298723353E-002   4.5290941298723353E-002  0.30768942500000002        6.6954282184218942E-016   1.3652725689715759E-017
 chl          12   1.0802368904853042E-005   2.3851058501090448E-004   4.5290941298723353E-002
 chl2c          13   8.9758884572678041E-002   3.7935816987997487E-002  0.75666275000000005        1.7387946495283280E-015   8.8539051735377601E-017
 chl          13   2.1437298945635216E-005   2.3883205598747577E-004   8.9758884572678041E-002
 chl2c          14  0.11869060800202733        4.6856526101924839E-002  0.39804095000000000        6.6954282184218942E-016   5.6616532058796583E-017
 chl          14   2.8308966349863479E-005   2.3851058501090448E-004  0.11869060800202733     
 chl2c          15  0.25607262497482131        2.0954299823745293E-002  0.25607262500000000        1.7387946495283280E-015   2.2641816912051811E-006
 chl          15   6.1076031588022585E-005   2.3851058501090448E-004  0.25607262497482131     
 chl2c          16  0.10812802635784187        3.7823443882273475E-002  0.71433214999999994        1.7387946495283280E-015   1.1077401220996432E-016
 chl          16   2.5824438846427505E-005   2.3883205600149768E-004  0.10812802635784187     
 chl2c          17  0.10581743361533068        3.7542254757581245E-002  0.62580860000000005        1.7387946495283280E-015   1.1071872730923629E-016
 chl          17   2.5272595231151418E-005   2.3883205600149768E-004  0.10581743361533068     
 chl2c          18   3.9257241931665500E-002   2.5694475239060960E-002  0.47925950000000000        4.7794766615943202E-015   1.0218471996087581E-016
 chl          18   9.3632677390361486E-006   2.3851058501090448E-004   3.9257241931665500E-002
 chl2c          19  0.63367129977276382        3.7570220750293731E-002  0.63367130000000005        1.7387946495283280E-015   1.5362745796775300E-006
 chl          19   1.5134101935387054E-004   2.3883205600149768E-004  0.63367129977276382     
 chl2c          20   9.1804025601872785E-002   3.7020645196759419E-002  0.50678202500000002        1.7387946495283280E-015   9.7471164529881545E-017
 chl          20   2.1925744182422141E-005   2.3883205598747577E-004   9.1804025601872785E-002
 chl2c          21  0.71973184966317905        3.7838475073783531E-002  0.71973185000000006        1.7387946495283280E-015   1.3370896387854566E-006
 chl          21   1.7189503741472587E-004   2.3883205598747577E-004  0.71973184966317905     
 chl2c          22  0.64616892484199995        3.7613353106285476E-002  0.64616892500000001        1.7387946495283280E-015   2.2974867780437968E-006
 chl          22   1.5432585284429206E-004   2.3883205600149768E-004  0.64616892484199995     
 chl2c          23   3.2286562315070731E-002   3.2286562315070731E-002  0.41564179999999995        1.4251680819021937E-015   1.8801318451677163E-017
 chl          23   7.7006868657585425E-006   2.3851058501090448E-004   3.2286562315070731E-002
 chl2c          24   7.8627559167380165E-002   3.7348402796863071E-002  0.57597492500000003        1.7387946495283280E-015   7.9165662108084773E-017
 chl          24   1.8778781613222304E-005   2.3883205598747577E-004   7.8627559167380165E-002
 chl2c          25   4.5426679235459781E-002   4.5426679235459781E-002  0.31406487500000002        6.6954282184218942E-016   1.4437085145830350E-017
 chl          25   1.0834743839552219E-005   2.3851058501090448E-004   4.5426679235459781E-002
 chl2c          26   4.7955660680174553E-002   4.7955660680174553E-002  0.49427735000000000        6.6954282184218942E-016   1.3133954751607415E-017
 chl          26   1.1437932683412862E-005   2.3851058501090448E-004   4.7955660680174553E-002
 chl2c          27  0.10880230186092683        4.5333133499525620E-002  0.30964730000000001        6.6954282184218942E-016   5.6155554918580195E-017
 chl          27   2.5950500667382682E-005   2.3851058501090448E-004  0.10880230186092683     
 chl2c          28   6.1579438380982614E-002   3.1209236063453518E-002  0.28776342500000002        1.4251680819021937E-015   5.5827162503202583E-017
 chl          28   1.4687347872891107E-005   2.3851058501090448E-004   6.1579438380982614E-002
 chl2c          29  0.68676297478899706        3.7743217595736761E-002  0.68676297499999994        1.7387946495283280E-015   1.9433164754262416E-006
 chl          29   1.6402101324493115E-004   2.3883205598747577E-004  0.68676297478899706     
 chl2c          30   4.1828973580903220E-002   2.5380056985171612E-002  0.38930277499999999        4.7794766615943202E-015   1.1199354485571768E-016
 chl          30   9.9766529591868951E-006   2.3851058501090448E-004   4.1828973580903220E-002
 chl2c          31  0.63559384977264111        3.7576959810037038E-002  0.63559385000000002        1.7387946495283280E-015   1.5447764871386084E-006
 chl          31   1.5180018591419469E-004   2.3883205598747577E-004  0.63559384977264111     
 chl2c          32  0.24722667497826958        2.0893126428578448E-002  0.24722667500000001        1.7387946495283280E-015   2.4453474056147791E-006
 chl          32   5.8966178879367818E-005   2.3851058501090448E-004  0.24722667497826958     
 chl2c          33  0.60343137480925313        3.7458922634011876E-002  0.60343137499999999        1.7387946495283280E-015   1.6596508559165728E-006
 chl          33   1.4411875589304303E-004   2.3883205598747577E-004  0.60343137480925313     
 chl2c          34  0.38241019953476696        2.5350269098008315E-002  0.38241020000000003        4.7794766615943202E-015   7.5117073127553360E-007
 chl          34   9.1208880405173987E-005   2.3851058501090448E-004  0.38241019953476696     
 chl2c          35   3.1699403513771381E-002   2.5740370148566064E-002  0.49574644999999995        4.7794766615943202E-015   8.0928043270357209E-017
 chl          35   7.5606432765663329E-006   2.3851058501090448E-004   3.1699403513771381E-002
 chl2c          36   8.5149106995413545E-002   3.7770393924465726E-002  0.69587337500000002        1.7387946495283280E-015   8.4349680057126485E-017
 chl          36   2.0336336290406126E-005   2.3883205600149768E-004   8.5149106995413545E-002
 chl2c          37   6.7825537409671052E-002   2.1353674699533250E-002  0.33194060000000003        1.7387946495283280E-015   7.4110330115877849E-017
 chl          37   1.6177108606259631E-005   2.3851058501090448E-004   6.7825537409671052E-002
 chl2c          38   9.7982081291716122E-002   2.1543295686358745E-002  0.38455722500000000        1.7387946495283280E-015   1.1431084000624171E-016
 chl          38   2.3369763529473211E-005   2.3851058501090448E-004   9.7982081291716122E-002
 chl2c          39   3.5612085655830295E-002   2.5670077108751441E-002  0.47091117500000002        4.7794766615943202E-015   9.2065941107280963E-017
 chl          39   8.4938593832305241E-006   2.3851058501090448E-004   3.5612085655830295E-002
 chl2c          40  0.10719713373355989        3.7687445774703773E-002  0.66875547499999999        1.7387946495283280E-015   1.1098746721559270E-016
 chl          40   2.5602111847053612E-005   2.3883205600149768E-004  0.10719713373355989     
 chl2c          41   2.6274042510818944E-002   2.5582381488167241E-002  0.44304987499999998        4.7794766615943202E-015   6.6746321892305066E-017
 chl          41   6.2666372498568003E-006   2.3851058501090448E-004   2.6274042510818944E-002
 chl2c          42   9.4378967638423225E-002   3.7949995630725070E-002  0.76234377499999995        1.7387946495283280E-015   9.3646337901898152E-017
 chl          42   2.2540722883060060E-005   2.3883205598747577E-004   9.4378967638423225E-002
 chl2c          43  0.29539924976677207        2.1185090152268007E-002  0.29539925000000000        1.7387946495283280E-015   3.2527938160326067E-007
 chl          43   7.0455847873655090E-005   2.3851058501090448E-004  0.29539924976677207     
 chl2c          44   8.0212788333468107E-002   3.7536352708156646E-002  0.62417262500000004        1.7387946495283280E-015   8.0020230056951480E-017
 chl          44   1.9157385154170398E-005   2.3883205598747577E-004   8.0212788333468107E-002
 chl2c          45   4.6544927192009838E-002   4.6544927192009838E-002  0.37662252499999999        6.6954282184218942E-016   1.7357546114933992E-017
 chl          45   1.1101457813856223E-005   2.3851058501090448E-004   4.6544927192009838E-002
 chl2c          46  0.51876034987581998        3.7083195475449568E-002  0.51876034999999998        1.7387946495283280E-015   1.8840849537465334E-006
 chl          46   1.2389660092562436E-004   2.3883205598747577E-004  0.51876034987581998     
 chl2c          47   9.8769659193500295E-002   3.7519784612651236E-002  0.61962282499999999        1.7387946495283280E-015   1.0215366532902888E-016
 chl          47   2.3589360774365962E-005   2.3883205598747577E-004   9.8769659193500295E-002
 chl2c          48   9.7570930136134548E-002   3.7823212136301673E-002  0.71424949999999998        1.7387946495283280E-015   9.8249383304007399E-017
 chl          48   2.3303065849023375E-005   2.3883205598747577E-004   9.7570930136134548E-002
 chl2c          49   8.7838795384051357E-002   3.7152990741888416E-002  0.53276120000000005        1.7387946495283280E-015   9.1443530139548834E-017
 chl          49   2.0978720097036183E-005   2.3883205598747577E-004   8.7838795384051357E-002
 chl2c          50  0.38132569993120913        2.1533072915600981E-002  0.38132569999999999        1.7387946495283280E-015   1.8377204009135139E-006
 chl          50   9.0950215770285308E-005   2.3851058501090448E-004  0.38132569993120913     
 chl2c          51   8.5863718664926508E-002   2.0700971146093840E-002  0.22275920000000002        1.7387946495283280E-015   1.2147153771168269E-016
 chl          51   2.0479405769983340E-005   2.3851058501090448E-004   8.5863718664926508E-002
 chl2c          52  0.10451898749541899        3.7581825176985564E-002  0.63698869999999996        1.7387946495283280E-015   1.0870519812853482E-016
 chl          52   2.4962484674725744E-005   2.3883205600149768E-004  0.10451898749541899     
 chl2c          53   9.7488151776104037E-002   3.7925801262726190E-002  0.75269794999999995        1.7387946495283280E-015   9.7366707914879249E-017
 chl          53   2.3283295724472983E-005   2.3883205600149768E-004   9.7488151776104037E-002
 chl2c          54   7.8061541470539828E-002   3.7082433371327092E-002  0.51861124999999997        1.7387946495283280E-015   7.9891842601060013E-017
 chl          54   1.8643598442960630E-005   2.3883205598747577E-004   7.8061541470539828E-002
 chl2c          55  0.57808279987249078        3.7357235588660491E-002  0.57808280000000001        1.7387946495283280E-015   2.2785395737845234E-006
 chl          55   1.3806470362454348E-004   2.3883205598747577E-004  0.57808279987249078     
 chl2c          56  0.10417318600164066        3.7507394187257688E-002  0.61626080000000005        1.7387946495283280E-015   1.0899197391333763E-016
 chl          56   2.4879896192998278E-005   2.3883205600149768E-004  0.10417318600164066     
 chl2c          57  0.68163462465950975        3.7727617852646313E-002  0.68163462500000005        1.7387946495283280E-015   1.1863612938931205E-006
 chl          57   1.6279619883968207E-004   2.3883205598747577E-004  0.68163462465950975     
 chl2c          58  0.69416802477202644        3.7765358178394853E-002  0.69416802499999997        1.7387946495283280E-015   1.8376506037791852E-006
 chl          58   1.6578957656680163E-004   2.3883205600149768E-004  0.69416802477202644     
 chl2c          59  0.53705127375915396        3.7173699120809672E-002  0.53705127500000005        1.7387946495283280E-015   2.0208397671238450E-007
 chl          59   1.2826505988259145E-004   2.3883205598747577E-004  0.53705127375915396     
 chl2c          60  0.64452154970391207        3.7607757740906807E-002  0.64452155000000000        1.7387946495283280E-015   1.2197546195357977E-006
 chl          60   1.5393240684401937E-004   2.3883205598747577E-004  0.64452154970391207     
 chl2c          61   9.4915305957216853E-002   3.7805373434125003E-002  0.70794139999999994        1.7387946495283280E-015   9.5295611405714626E-017
 chl          61   2.2668817666442408E-005   2.3883205598747577E-004   9.4915305957216853E-002
 chl2c          62   8.0109124448872457E-002   3.7956103087269030E-002  0.76481592499999995        1.7387946495283280E-015   7.7795157707688833E-017
 chl          62   1.9132626895480770E-005   2.3883205598747577E-004   8.0109124448872457E-002
 chl2c          63  0.72597904972164717        3.7855601011927406E-002  0.72597904999999996        1.7387946495283280E-015   1.6461554975423523E-006
 chl          63   1.7338706905903450E-004   2.3883205600149768E-004  0.72597904972164717     
 chl2c          64   2.5732309573837316E-002   2.5708982294816416E-002  0.48435739999999999        4.7794766615943202E-015   6.4943732634036621E-017
 chl          64   6.1374282101376364E-006   2.3851058501090448E-004   2.5732309573837316E-002
 chl2c          65  0.76379974638751891        3.7953597170552002E-002  0.76379975000000000        1.7387946495283280E-015   1.4040149574899932E-007
 chl          65   1.8241986380315364E-004   2.3883205600149768E-004  0.76379974638751891     
 chl2c          66   3.1840477731474713E-002   3.1840477731474713E-002  0.35213202499999996        1.4251680819021937E-015   1.4353632626441893E-017
 chl          66   7.5942909707607105E-006   2.3851058501090448E-004   3.1840477731474713E-002
 chl2c          67   9.1893728039373734E-002   3.7937587124568600E-002  0.75736760000000003        1.7387946495283280E-015   9.0924282721274744E-017
 chl          67   2.1947167999997579E-005   2.3883205598747577E-004   9.1893728039373734E-002
 chl2c          68  0.72590779973976749        3.7855407263856986E-002  0.72590779999999999        1.7387946495283280E-015   1.7604339353546983E-006
 chl          68   1.7337005227937210E-004   2.3883205600149768E-004  0.72590779973976749     
 chl2c          69  0.45524217488785829        2.1732330561541505E-002  0.45524217500000003        1.7387946495283280E-015   1.6067044628291998E-006
 chl          69   1.0858007745413957E-004   2.3851058501090448E-004  0.45524217488785829     
 chl2c          70   7.9864326980125244E-002   3.2658010878182209E-002  0.48694062500000002        1.4251680819021937E-015   6.8075230470400664E-017
 chl          70   1.9048487349531835E-005   2.3851058501090448E-004   7.9864326980125244E-002
 chl2c          71   4.3481058864416305E-002   4.3481058864416305E-002  0.23986107500000001        6.6954282184218942E-016   1.6002782559871242E-017
 chl          71   1.0370692786645507E-005   2.3851058501090448E-004   4.3481058864416305E-002
 chl2c          72  0.10477498543192651        3.7549776402781669E-002  0.62790522500000001        1.7387946495283280E-015   1.0933524448526985E-016
 chl          72   2.5023625188233974E-005   2.3883205600149768E-004  0.10477498543192651     
 chl2c          73   3.1852614277819484E-002   3.1852614277819484E-002  0.35362212500000001        1.4251680819021937E-015   1.7908333684325064E-017
 chl          73   7.5971856655294141E-006   2.3851058501090448E-004   3.1852614277819484E-002
 chl2c          74  0.64719589975029979        3.7616827685877569E-002  0.64719590000000005        1.7387946495283280E-015   1.4583803568878576E-006
 chl          74   1.5457112736402836E-004   2.3883205598747577E-004  0.64719589975029979     
 chl2c          75   8.7115894642982486E-002   3.7826830779512356E-002  0.71554212500000003        1.7387946495283280E-015   8.6237588329492530E-017
 chl          75   2.0806068227993364E-005   2.3883205600149768E-004   8.7115894642982486E-002
 chl2c          76  0.55513977486815524        3.7257729557919804E-002  0.55513977500000000        1.7387946495283280E-015   2.0321715649721926E-006
 chl          76   1.3258517379997005E-004   2.3883205600149768E-004  0.55513977486815524     
 chl2c          77  0.52973029969570506        3.7138172437479272E-002  0.52973029999999999        1.7387946495283280E-015   8.0173947019941709E-007
 chl          77   1.2651657659518695E-004   2.3883205598747577E-004  0.52973029969570506     
 chl2c          78  0.45117492489118344        4.7515248899399322E-002  0.45117492500000000        6.6954282184218942E-016   6.2624342808858368E-007
 chl          78   1.0760999527804705E-004   2.3851058501090448E-004  0.45117492489118344     
 prod   6.6871016183972428E-008   6.2771997889796767E-009   10.000000000000000     
 dcdom   1.2274793211885680E-012  -2.1813745916683062E-010
 chl2c           1  0.60826437484853635        3.7477407714772232E-002  0.60826437499999997        2.9924535004776255E-016   3.6548852860748010E-007
 chl           1   1.0222386129468653E-004   1.6805827452929698E-004  0.60826437484853635     
 chl2c           2  0.48302389949762142        3.2640259920490348E-002  0.48302390000000001        2.4482433780470414E-016   5.6850031112123044E-008
 chl           2   8.1104821068572969E-005   1.6791057575603951E-004  0.48302389949762142     
 chl2c           3  0.34585011910188251        3.7922212503796585E-002  0.75128689999999998        2.9924535004776255E-016   9.5888829170612307E-017
 chl           3   5.8122974262014227E-005   1.6805827452929698E-004  0.34585011910188251     
 chl2c           4  0.77318742495712778        3.7976509103863923E-002  0.77318742499999993        2.9924535004776255E-016   2.0863775332180667E-006
 chl           4   1.2994054452604518E-004   1.6805827452929698E-004  0.77318742495712778     
 chl2c           5  0.48489679991183660        2.5710500362372445E-002  0.48489679999999996        8.2725501699344230E-016   1.1031124704447393E-006
 chl           5   8.1419300855457572E-005   1.6791057575603951E-004  0.48489679991183660     
 chl2c           6  0.17804654780174270        3.1261039902252048E-002  0.29222855000000003        2.4482433780470414E-016   5.5780594587730341E-017
 chl           6   2.9895898352765828E-005   1.6791057575603951E-004  0.17804654780174270     
 chl2c           7  0.22770739996187439        4.3064391842467263E-002  0.22770740000000000        1.1479001493858721E-016   7.8056952405692909E-008
 chl           7   3.8234480631509100E-005   1.6791057575603951E-004  0.22770739996187439     
 chl2c           8  0.49578364959005217        4.7969800906495587E-002  0.49578364999999996        1.1479001493858721E-016   3.4413589287985826E-008
 chl           8   8.3247318053096200E-005   1.6791057575603951E-004  0.49578364959005217     
 chl2c           9  0.28700202497857069        2.4803669054600401E-002  0.28700202499999999        8.2725501699344230E-016   1.5899031478473685E-006
 chl           9   4.8190675257301034E-005   1.6791057575603951E-004  0.28700202497857069     
 chl2c          10  0.39094662496122562        2.5387016219684602E-002  0.39094662499999999        8.2725501699344230E-016   1.6304227279076232E-006
 chl          10   6.5644072887119839E-005   1.6791057575603951E-004  0.39094662496122562     
 chl2c          11  0.26970407359783449        2.1820572217820047E-002  0.49737575000000001        2.9924535004776255E-016   8.8157755140308486E-017
 chl          11   4.5286166281561647E-005   1.6791057575603951E-004  0.26970407359783449     
 chl2c          12   5.5275095529072601E-002   4.5290941298723353E-002  0.30768942500000002        1.1479001493858721E-016   3.8672494178200572E-018
 chl          12   9.2812731152566658E-006   1.6791057575603951E-004   5.5275095529072601E-002
 chl2c          13  0.31280306280324149        3.7935816987997487E-002  0.75666275000000005        2.9924535004776255E-016   7.9785700702171830E-017
 chl          13   5.2569142999104770E-005   1.6805827451942714E-004  0.31280306280324149     
 chl2c          14  0.26067434072281270        4.6856526101924839E-002  0.39804095000000000        1.1479001493858721E-016   4.3352982086190930E-017
 chl          14   4.3769978635593496E-005   1.6791057575603951E-004  0.26067434072281270     
 chl2c          15  0.25607262499504135        2.0954299823745293E-002  0.25607262500000000        2.9924535004776255E-016   1.9786150342164175E-006
 chl          15   4.2997301898277789E-005   1.6791057575603951E-004  0.25607262499504135     
 chl2c          16  0.34494727364540884        3.7823443882273475E-002  0.71433214999999994        2.9924535004776255E-016   9.9809347959046846E-017
 chl          16   5.7971243612432647E-005   1.6805827452929698E-004  0.34494727364540884     
 chl2c          17  0.32281334120776017        3.7542254757581245E-002  0.62580860000000005        2.9924535004776255E-016   9.9759573587876791E-017
 chl          17   5.4251453118413375E-005   1.6805827452929698E-004  0.32281334120776017     
 chl2c          18  0.15192363329061645        2.5694475239060960E-002  0.47925950000000000        8.2725501699344230E-016   9.2005097140268061E-017
 chl          18   2.5509584736776820E-005   1.6791057575603951E-004  0.15192363329061645     
 chl2c          19  0.63367129995715787        3.7570220750293731E-002  0.63367130000000005        2.9924535004776255E-016   1.4023438271135593E-006
 chl          19   1.0649370528953653E-004   1.6805827452929698E-004  0.63367129995715787     
 chl2c          20  0.27197773530715269        3.7020645196759419E-002  0.50678202500000002        2.9924535004776255E-016   8.7830619067206740E-017
 chl          20   4.5708108903421556E-005   1.6805827451942714E-004  0.27197773530715269     
 chl2c          21  0.71973184993920836        3.7838475073783531E-002  0.71973185000000006        2.9924535004776255E-016   1.2749530848400933E-006
 chl          21   1.2095689281745862E-004   1.6805827451942714E-004  0.71973184993920836     
 chl2c          22  0.64616892496945533        3.7613353106285476E-002  0.64616892500000001        2.9924535004776255E-016   2.0452868293734921E-006
 chl          22   1.0859403458481743E-004   1.6805827452929698E-004  0.64616892496945533     
 chl2c          23   3.9629726410286767E-002   3.2286562315070731E-002  0.41564179999999995        2.4482433780470414E-016   5.3624479988829434E-018
 chl          23   6.6542501786055755E-006   1.6791057575603951E-004   3.9629726410286767E-002
 chl2c          24  0.26086181182234403        3.7348402796863071E-002  0.57597492500000003        2.9924535004776255E-016   7.1341957567176618E-017
 chl          24   4.3839985982874636E-005   1.6805827451942714E-004  0.26086181182234403     
 chl2c          25   5.8124816824027530E-002   4.5426679235459781E-002  0.31406487500000002        1.1479001493858721E-016   4.0937075819925071E-018
 chl          25   9.7597714586367940E-006   1.6791057575603951E-004   5.8124816824027530E-002
 chl2c          26   5.7269386244552523E-002   4.7955660680174553E-002  0.49427735000000000        1.1479001493858721E-016   3.7177313511504990E-018
 chl          26   9.6161356175178235E-006   1.6791057575603951E-004   5.7269386244552523E-002
 chl2c          27  0.21909455521394486        4.5333133499525620E-002  0.30964730000000001        1.1479001493858721E-016   4.3000289569719547E-017
 chl          27   3.6788292910986868E-005   1.6791057575603951E-004  0.21909455521394486     
 chl2c          28  0.15776394068986510        3.1209236063453518E-002  0.28776342500000002        2.4482433780470414E-016   4.2749033752433469E-017
 chl          28   2.6490234114776917E-005   1.6791057575603951E-004  0.15776394068986510     
 chl2c          29  0.68676297495861671        3.7743217595736761E-002  0.68676297499999994        2.9924535004776255E-016   1.7052420809354972E-006
 chl          29   1.1541620057537367E-004   1.6805827451942714E-004  0.68676297495861671     
 chl2c          30  0.14988679589407111        2.5380056985171612E-002  0.38930277499999999        8.2725501699344230E-016   1.0081082214625629E-016
 chl          30   2.5167578196801460E-005   1.6791057575603951E-004  0.14988679589407111     
 chl2c          31  0.63559384995268009        3.7576959810037038E-002  0.63559385000000002        2.9924535004776255E-016   1.2773580110645828E-006
 chl          31   1.0681680571820709E-004   1.6805827451942714E-004  0.63559384995268009     
 chl2c          32  0.24722667499579443        2.0893126428578448E-002  0.24722667500000001        2.9924535004776255E-016   2.1744979504777627E-006
 chl          32   4.1511973340795098E-005   1.6791057575603951E-004  0.24722667499579443     
 chl2c          33  0.60343137496377908        3.7458922634011876E-002  0.60343137499999999        2.9924535004776255E-016   1.5041606754525908E-006
 chl          33   1.0141163566729816E-004   1.6805827451942714E-004  0.60343137496377908     
 chl2c          34  0.38241019988913028        2.5350269098008315E-002  0.38241020000000003        8.2725501699344230E-016   5.4557580245618369E-007
 chl          34   6.4210716838366020E-005   1.6791057575603951E-004  0.38241019988913028     
 chl2c          35  0.13001912427586096        2.5740370148566064E-002  0.49574644999999995        8.2725501699344230E-016   7.2898543821621916E-017
 chl          35   2.1831586016455866E-005   1.6791057575603951E-004  0.13001912427586096     
 chl2c          36  0.29364678276840323        3.7770393924465726E-002  0.69587337500000002        2.9924535004776255E-016   7.6011990016003055E-017
 chl          36   4.9349771633137145E-005   1.6805827452929698E-004  0.29364678276840323     
 chl2c          37  0.19034460157239214        2.1353674699533250E-002  0.33194060000000003        2.9924535004776255E-016   6.6764772526866843E-017
 chl          37   3.1960871642074306E-005   1.6791057575603951E-004  0.19034460157239214     
 chl2c          38  0.24663381740974580        2.1543295686358745E-002  0.38455722500000000        2.9924535004776255E-016   1.0288996909217555E-016
 chl          38   4.1412426282180340E-005   1.6791057575603951E-004  0.24663381740974580     
 chl2c          39  0.14060336163184298        2.5670077108751441E-002  0.47091117500000002        8.2725501699344230E-016   8.2913503742174658E-017
 chl          39   2.3608791404837390E-005   1.6791057575603951E-004  0.14060336163184298     
 chl2c          40  0.33427836318530729        3.7687445774703773E-002  0.66875547499999999        2.9924535004776255E-016   1.0000152617330612E-016
 chl          40   5.6178244929400414E-005   1.6805827452929698E-004  0.33427836318530729     
 chl2c          41  0.10946703812313509        2.5582381488167241E-002  0.44304987499999998        8.2725501699344230E-016   6.0136992112185996E-017
 chl          41   1.8380673397563938E-005   1.6791057575603951E-004  0.10946703812313509     
 chl2c          42  0.32416785878667415        3.7949995630725070E-002  0.76234377499999995        2.9924535004776255E-016   8.4385868074565133E-017
 chl          42   5.4479091002345773E-005   1.6805827451942714E-004  0.32416785878667415     
 chl2c          43  0.29539924997064360        2.1185090152268007E-002  0.29539925000000000        2.9924535004776255E-016   4.4474725148055714E-007
 chl          43   4.9600658140473000E-005   1.6791057575603951E-004  0.29539924997064360     
 chl2c          44  0.27196149423424132        3.7536352708156646E-002  0.62417262500000004        2.9924535004776255E-016   7.2111822946376876E-017
 chl          44   4.5705379456731726E-005   1.6805827451942714E-004  0.27196149423424132     
 chl2c          45   7.0071890636179801E-002   4.6544927192009838E-002  0.37662252499999999        1.1479001493858721E-016   4.9410815729699900E-018
 chl          45   1.1765811501035184E-005   1.6791057575603951E-004   7.0071890636179801E-002
 chl2c          46  0.51876034997507625        3.7083195475449568E-002  0.51876034999999998        2.9924535004776255E-016   1.6155448313869415E-006
 chl          46   8.7181969305905456E-005   1.6805827451942714E-004  0.51876034997507625     
 chl2c          47  0.30870103392599968        3.7519784612651236E-002  0.61962282499999999        2.9924535004776255E-016   9.2047446609017146E-017
 chl          47   5.1879763103966643E-005   1.6805827451942714E-004  0.30870103392599968     
 chl2c          48  0.32361185526946185        3.7823212136301673E-002  0.71424949999999998        2.9924535004776255E-016   8.8531473075649021E-017
 chl          48   5.4385650010616345E-005   1.6805827451942714E-004  0.32361185526946185     
 chl2c          49  0.27079853023512018        3.7152990741888416E-002  0.53276120000000005        2.9924535004776255E-016   8.2401837924401985E-017
 chl          49   4.5509933733711214E-005   1.6805827451942714E-004  0.27079853023512018     
 chl2c          50  0.38132569998675181        2.1533072915600981E-002  0.38132569999999999        2.9924535004776255E-016   1.6422234075497106E-006
 chl          50   6.4028617835350281E-005   1.6791057575603951E-004  0.38132569998675181     
 chl2c          51  0.17070896051112325        2.0700971146093840E-002  0.22275920000000002        2.9924535004776255E-016   1.0931170045833608E-016
 chl          51   2.8663839846137716E-005   1.6791057575603951E-004  0.17070896051112325     
 chl2c          52  0.32284314629184019        3.7581825176985564E-002  0.63698869999999996        2.9924535004776255E-016   9.7946697420829337E-017
 chl          52   5.4256462109416064E-005   1.6805827452929698E-004  0.32284314629184019     
 chl2c          53  0.32960686938803768        3.7925801262726190E-002  0.75269794999999995        2.9924535004776255E-016   8.7736545902308844E-017
 chl          53   5.5393161742356972E-005   1.6805827452929698E-004  0.32960686938803768     
 chl2c          54  0.24959876456472047        3.7082433371327092E-002  0.51861124999999997        2.9924535004776255E-016   7.1996161566379347E-017
 chl          54   4.1947137694927654E-005   1.6805827451942714E-004  0.24959876456472047     
 chl2c          55  0.57808279997534828        3.7357235588660491E-002  0.57808280000000001        2.9924535004776255E-016   2.0282978146532924E-006
 chl          55   9.7151597893216170E-005   1.6805827451942714E-004  0.57808279997534828     
 chl2c          56  0.31783707295065800        3.7507394187257688E-002  0.61626080000000005        2.9924535004776255E-016   9.8204900709753986E-017
 chl          56   5.3415150061529876E-005   1.6805827452929698E-004  0.31783707295065800     
 chl2c          57  0.68163462492513116        3.7727617852646313E-002  0.68163462500000005        2.9924535004776255E-016   9.2853810322234057E-007
 chl          57   1.1455433891761445E-004   1.6805827451942714E-004  0.68163462492513116     
 chl2c          58  0.69416802495768681        3.7765358178394853E-002  0.69416802499999997        2.9924535004776255E-016   1.7039263935976610E-006
 chl          58   1.1666068050779880E-004   1.6805827452929698E-004  0.69416802495768681     
 chl2c          59  0.53705127484602122        3.7173699120809672E-002  0.53705127500000005        2.9924535004776255E-016   2.8026437059259555E-007
 chl          59   9.0255910579080951E-005   1.6805827451942714E-004  0.53705127484602122     
 chl2c          60  0.64452154994600541        3.7607757740906807E-002  0.64452155000000000        2.9924535004776255E-016   1.1511232912869851E-006
 chl          60   1.0831717957451245E-004   1.6805827451942714E-004  0.64452154994600541     
 chl2c          61  0.31696196391082432        3.7805373434125003E-002  0.70794139999999994        2.9924535004776255E-016   8.5871284353902426E-017
 chl          61   5.3268080743142070E-005   1.6805827451942714E-004  0.31696196391082432     
 chl2c          62  0.29055405810116791        3.7956103087269030E-002  0.76481592499999995        2.9924535004776255E-016   7.0107273282829538E-017
 chl          62   4.8830013659099661E-005   1.6805827451942714E-004  0.29055405810116791     
 chl2c          63  0.72597904994662787        3.7855601011927406E-002  0.72597904999999996        2.9924535004776255E-016   1.4775130277610915E-006
 chl          63   1.2200678647844859E-004   1.6805827452929698E-004  0.72597904994662787     
 chl2c          64  0.10948796811576825        2.5708982294816416E-002  0.48435739999999999        8.2725501699344230E-016   5.8514260582286101E-017
 chl          64   1.8384187764677544E-005   1.6791057575603951E-004  0.10948796811576825     
 chl2c          65  0.76379974956626762        3.7953597170552002E-002  0.76379975000000000        2.9924535004776255E-016   2.0124939094042343E-007
 chl          65   1.2836286799801608E-004   1.6805827452929698E-004  0.76379974956626762     
 chl2c          66   3.1840477731474713E-002   3.1840477731474713E-002  0.35213202499999996        2.4482433780470414E-016   4.0695908530804882E-018
 chl          66   5.3463529482392734E-006   1.6791057575603951E-004   3.1840477731474713E-002
 chl2c          67  0.31781384138747015        3.7937587124568600E-002  0.75736760000000003        2.9924535004776255E-016   8.1934148890904140E-017
 chl          67   5.3411245801969132E-005   1.6805827451942714E-004  0.31781384138747015     
 chl2c          68  0.72590779995235899        3.7855407263856986E-002  0.72590779999999999        2.9924535004776255E-016   1.6549333058709970E-006
 chl          68   1.2199481232735154E-004   1.6805827452929698E-004  0.72590779995235899     
 chl2c          69  0.45524217497779285        2.1732330561541505E-002  0.45524217500000003        2.9924535004776255E-016   1.3963328830194153E-006
 chl          69   7.6439975708952873E-005   1.6791057575603951E-004  0.45524217497779285     
 chl2c          70  0.22714954340221430        3.2658010878182209E-002  0.48694062500000002        2.4482433780470414E-016   5.2118058835084825E-017
 chl          70   3.8140810615387291E-005   1.6791057575603951E-004  0.22714954340221430     
 chl2c          71   5.9554966823750582E-002   4.3481058864416305E-002  0.23986107500000001        1.1479001493858721E-016   4.5471726082336239E-018
 chl          71   9.9999087685077914E-006   1.6791057575603951E-004   5.9554966823750582E-002
 chl2c          72  0.32139938899925230        3.7549776402781669E-002  0.62790522500000001        2.9924535004776255E-016   9.8513967664258119E-017
 chl          72   5.4013826749984654E-005   1.6805827452929698E-004  0.32139938899925230     
 chl2c          73   3.7282046777140754E-002   3.1852614277819484E-002  0.35362212500000001        2.4482433780470414E-016   5.1016369770424331E-018
 chl          73   6.2600499397133010E-006   1.6791057575603951E-004   3.7282046777140754E-002
 chl2c          74  0.64719589995457327        3.7616827685877569E-002  0.64719590000000005        2.9924535004776255E-016   1.3796138563392068E-006
 chl          74   1.0876662622241337E-004   1.6805827451942714E-004  0.64719589995457327     
 chl2c          75  0.30094422511312774        3.7826830779512356E-002  0.71554212500000003        2.9924535004776255E-016   7.7712617581192159E-017
 chl          75   5.0576167202068575E-005   1.6805827452929698E-004  0.30094422511312774     
 chl2c          76  0.55513977497448941        3.7257729557919804E-002  0.55513977500000000        2.9924535004776255E-016   1.8075164321090944E-006
 chl          76   9.3295832704794895E-005   1.6805827452929698E-004  0.55513977497448941     
 chl2c          77  0.52973029994748910        3.7138172437479272E-002  0.52973029999999999        2.9924535004776255E-016   7.9957301546359954E-007
 chl          77   8.9025560169833597E-005   1.6805827451942714E-004  0.52973029994748910     
 chl2c          78  0.45117492496903516        4.7515248899399322E-002  0.45117492500000000        1.1479001493858721E-016   3.7730690295314020E-007
 chl          78   7.5757041418238617E-005   1.6791057575603951E-004  0.45117492496903516     
 prod   1.8603094620774275E-008   1.0764124838336127E-009   10.000000000000000     
 dcdom   1.2341504092862110E-012  -1.9293453983908720E-010
 chl2c           1  0.60826437499192676        3.7477407714772232E-002  0.60826437499999997        5.7700924388639269E-017   1.3221916491380034E-006
 chl           1   7.6122574745595342E-005   1.2514718578842578E-004  0.60826437499192676     
 chl2c           2  0.48302389984971356        3.2640259920490348E-002  0.48302390000000001        4.6994844461809573E-017   3.6478568205684302E-008
 chl           2   6.0405779334239153E-005   1.2505753722131266E-004  0.48302389984971356     
 chl2c           3  0.68816241532912170        3.7922212503796585E-002  0.75128689999999998        5.7700924388639269E-017   2.3629345646249212E-016
 chl           3   8.6121589643805419E-005   1.2514718578842578E-004  0.68816241532912170     
 chl2c           4  0.77318742499658499        3.7976509103863923E-002  0.77318742499999993        5.7700924388639269E-017   5.0504661834876809E-006
 chl           4   9.6762230325322148E-005   1.2514718578842578E-004  0.77318742499658499     
 chl2c           5  0.48489679999125523        2.5710500362372445E-002  0.48489679999999996        1.6112592082581429E-016   2.1661311503619258E-006
 chl           5   6.0639999613401805E-005   1.2505753722131266E-004  0.48489679999125523     
 chl2c           6  0.25368311155071777        3.1261039902252048E-002  0.29222855000000003        4.6994844461809573E-017   4.5191986278951843E-017
 chl           6   3.1724985165172296E-005   1.2505753722131266E-004  0.25368311155071777     
 chl2c           7  0.22770739999050355        4.3064391842467263E-002  0.22770740000000000        2.1951766519804534E-017   5.9928401073304194E-008
 chl           7   2.8476526649880728E-005   1.2505753722131266E-004  0.22770739999050355     
 chl2c           8  0.49578364992259766        4.7969800906495587E-002  0.49578364999999996        2.1951766519804534E-017   3.4855403480528941E-008
 chl           8   6.2001482253913498E-005   1.2505753722131266E-004  0.49578364992259766     
 chl2c           9  0.28700202499822119        2.4803669054600401E-002  0.28700202499999999        1.6112592082581429E-016   3.7305025699836975E-006
 chl           9   3.5891766423807156E-005   1.2505753722131266E-004  0.28700202499822119     
 chl2c          10  0.39094662499632943        2.5387016219684602E-002  0.39094662499999999        1.6112592082581429E-016   3.3545921406989287E-006
 chl          10   4.8890822107025028E-005   1.2505753722131266E-004  0.39094662499632943     
 chl2c          11  0.46372235892850322        2.1820572217820047E-002  0.49737575000000001        5.7700924388639269E-017   1.9772727734241540E-016
 chl          11   5.7991976162056204E-005   1.2505753722131266E-004  0.46372235892850322     
 chl2c          12  0.14547213097861511        4.5290941298723353E-002  0.30768942500000002        2.1951766519804534E-017   3.0285496478971530E-018
 chl          12   1.8192386434521831E-005   1.2505753722131266E-004  0.14547213097861511     
 chl2c          13  0.68290639063206859        3.7935816987997487E-002  0.75666275000000005        5.7700924388639269E-017   2.0212351153902609E-016
 chl          13   8.5463812939467917E-005   1.2514718578100626E-004  0.68290639063206859     
 chl2c          14  0.35385833674161227        4.6856526101924839E-002  0.39804095000000000        2.1951766519804534E-017   3.4990106611430708E-017
 chl          14   4.4252652118135962E-005   1.2505753722131266E-004  0.35385833674161227     
 chl2c          15  0.25607262499953409        2.0954299823745293E-002  0.25607262500000000        5.7700924388639269E-017   4.0603480223385962E-006
 chl          15   3.2023811832238473E-005   1.2505753722131266E-004  0.25607262499953409     
 chl2c          16  0.65876699745379397        3.7823443882273475E-002  0.71433214999999994        5.7700924388639269E-017   2.4433309427370035E-016
 chl          16   8.2442835821633362E-005   1.2514718578842578E-004  0.65876699745379397     
 chl2c          17  0.58273017645815084        3.7542254757581245E-002  0.62580860000000005        5.7700924388639269E-017   2.4423168664915762E-016
 chl          17   7.2927041657730340E-005   1.2514718578842578E-004  0.58273017645815084     
 chl2c          18  0.40306391753160586        2.5694475239060960E-002  0.47925950000000000        1.6112592082581429E-016   2.0424445526340152E-016
 chl          18   5.0406180869276897E-005   1.2505753722131266E-004  0.40306391753160586     
 chl2c          19  0.63367129999682070        3.7570220750293731E-002  0.63367130000000005        5.7700924388639269E-017   3.6437877792523756E-006
 chl          19   7.9302179909495403E-005   1.2514718578842578E-004  0.63367129999682070     
 chl2c          20  0.47512392298976769        3.7020645196759419E-002  0.50678202500000002        5.7700924388639269E-017   2.1942999924768618E-016
 chl          20   5.9460421859400972E-005   1.2514718578100626E-004  0.47512392298976769     
 chl2c          21  0.71973184999567108        3.7838475073783531E-002  0.71973185000000006        5.7700924388639269E-017   3.4523332127673692E-006
 chl          21   9.0072415543915576E-005   1.2514718578100626E-004  0.71973184999567108     
 chl2c          22  0.64616892499756040        3.7613353106285476E-002  0.64616892500000001        5.7700924388639269E-017   4.9377549768849967E-006
 chl          22   8.0866222507377061E-005   1.2514718578842578E-004  0.64616892499756040     
 chl2c          23  0.12503253290710545        3.2286562315070731E-002  0.41564179999999995        4.6994844461809573E-017   4.2019705845348841E-018
 chl          23   1.5636260637905339E-005   1.2505753722131266E-004  0.12503253290710545     
 chl2c          24  0.52813109619654697        3.7348402796863071E-002  0.57597492500000003        5.7700924388639269E-017   1.8343075922969916E-016
 chl          24   6.6094120412435754E-005   1.2514718578100626E-004  0.52813109619654697     
 chl2c          25  0.15134535833250762        4.5426679235459781E-002  0.31406487500000002        2.1951766519804534E-017   3.2061830013420266E-018
 chl          25   1.8926877782940475E-005   1.2505753722131266E-004  0.15134535833250762     
 chl2c          26  0.17261404205940198        4.7955660680174553E-002  0.49427735000000000        2.1951766519804534E-017   2.9112854333703310E-018
 chl          26   2.1586686989764893E-005   1.2505753722131266E-004  0.17261404205940198     
 chl2c          27  0.28202593693720052        4.5333133499525620E-002  0.30964730000000001        2.1951766519804534E-017   3.4701697607233251E-017
 chl          27   3.5269469105899529E-005   1.2505753722131266E-004  0.28202593693720052     
 chl2c          28  0.24060236925293163        3.1209236063453518E-002  0.28776342500000002        4.6994844461809573E-017   3.4496274555011685E-017
 chl          28   3.0089139748384512E-005   1.2505753722131266E-004  0.24060236925293163     
 chl2c          29  0.68676297499665528        3.7743217595736761E-002  0.68676297499999994        5.7700924388639269E-017   4.0683409021770146E-006
 chl          29   8.5946453619422983E-005   1.2514718578100626E-004  0.68676297499665528     
 chl2c          30  0.34047058320822615        2.5380056985171612E-002  0.38930277499999999        1.6112592082581429E-016   2.1867356895933431E-016
 chl          30   4.2578412632324771E-005   1.2505753722131266E-004  0.34047058320822615     
 chl2c          31  0.63559384999566226        3.7576959810037038E-002  0.63559385000000002        5.7700924388639269E-017   2.6868195629403517E-006
 chl          31   7.9542781626672164E-005   1.2514718578100626E-004  0.63559384999566226     
 chl2c          32  0.24722667499961706        2.0893126428578448E-002  0.24722667500000001        5.7700924388639269E-017   4.6047747901218692E-006
 chl          32   3.0917559110865979E-005   1.2505753722131266E-004  0.24722667499961706     
 chl2c          33  0.60343137499727240        3.7458922634011876E-002  0.60343137499999999        5.7700924388639269E-017   3.8514471932851643E-006
 chl          33   7.5517738392871710E-005   1.2514718578100626E-004  0.60343137499727240     
 chl2c          34  0.38241019998546849        2.5350269098008315E-002  0.38241020000000003        1.6112592082581429E-016   8.1074159845174400E-007
 chl          34   4.7823277818492345E-005   1.2505753722131266E-004  0.38241019998546849     
 chl2c          35  0.40166042874344648        2.5740370148566064E-002  0.49574644999999995        1.6112592082581429E-016   1.7050180218517060E-016
 chl          35   5.0230664017911963E-005   1.2505753722131266E-004  0.40166042874344648     
 chl2c          36  0.63056417381660390        3.7770393924465726E-002  0.69587337500000002        5.7700924388639269E-017   1.9383755166257680E-016
 chl          36   7.8913331812151738E-005   1.2514718578842578E-004  0.63056417381660390     
 chl2c          37  0.31307140681779932        2.1353674699533250E-002  0.33194060000000003        5.7700924388639269E-017   1.5889243616511840E-016
 chl          37   3.9151939111045661E-005   1.2505753722131266E-004  0.31307140681779932     
 chl2c          38  0.36625222654322226        2.1543295686358745E-002  0.38455722500000000        5.7700924388639269E-017   2.2198535679415079E-016
 chl          38   4.5802601453317658E-005   1.2505753722131266E-004  0.36625222654322226     
 chl2c          39  0.39205700532715587        2.5670077108751441E-002  0.47091117500000002        1.6112592082581429E-016   1.8862487656301940E-016
 chl          39   4.9029683536577174E-005   1.2505753722131266E-004  0.39205700532715587     
 chl2c          40  0.61988423878589249        3.7687445774703773E-002  0.66875547499999999        5.7700924388639269E-017   2.4472446905171203E-016
 chl          40   7.7576767998654978E-005   1.2514718578842578E-004  0.61988423878589249     
 chl2c          41  0.35595747504239678        2.5582381488167241E-002  0.44304987499999998        1.6112592082581429E-016   1.4588340592175586E-016
 chl          41   4.4515165184319006E-005   1.2505753722131266E-004  0.35595747504239678     
 chl2c          42  0.69071219463846045        3.7949995630725070E-002  0.76234377499999995        5.7700924388639269E-017   2.1207829549793955E-016
 chl          42   8.6440687343625964E-005   1.2514718578100626E-004  0.69071219463846045     
 chl2c          43  0.29539924999835948        2.1185090152268007E-002  0.29539925000000000        5.7700924388639269E-017   1.5346022812395043E-006
 chl          43   3.6941902701817685E-005   1.2505753722131266E-004  0.29539924999835948     
 chl2c          44  0.56884887642549198        3.7536352708156646E-002  0.62417262500000004        5.7700924388639269E-017   1.8515813520453433E-016
 chl          44   7.1189836019337714E-005   1.2514718578100626E-004  0.56884887642549198     
 chl2c          45  0.18213325741134709        4.6544927192009838E-002  0.37662252499999999        2.1951766519804534E-017   3.8711445110357927E-018
 chl          45   2.2777136617958458E-005   1.2505753722131266E-004  0.18213325741134709     
 chl2c          46  0.51876034999787035        3.7083195475449568E-002  0.51876034999999998        5.7700924388639269E-017   3.6458543266688454E-006
 chl          46   6.4921397897003307E-005   1.2514718578100626E-004  0.51876034999787035     
 chl2c          47  0.57463037505022385        3.7519784612651236E-002  0.61962282499999999        5.7700924388639269E-017   2.2831220030167392E-016
 chl          47   7.1913374301819669E-005   1.2514718578100626E-004  0.57463037505022385     
 chl2c          48  0.65331029941946173        3.7823212136301673E-002  0.71424949999999998        5.7700924388639269E-017   2.2091513585899277E-016
 chl          48   8.1759945414092201E-005   1.2514718578100626E-004  0.65331029941946173     
 chl2c          49  0.49606906104112275        3.7152990741888416E-002  0.53276120000000005        5.7700924388639269E-017   2.0780427401654142E-016
 chl          49   6.2081646942322729E-005   1.2514718578100626E-004  0.49606906104112275     
 chl2c          50  0.38132569999887461        2.1533072915600981E-002  0.38132569999999999        5.7700924388639269E-017   3.7279043597441809E-006
 chl          50   4.7687652921052368E-005   1.2505753722131266E-004  0.38132569999887461     
 chl2c          51  0.21675468490682256        2.0700971146093840E-002  0.22275920000000002        5.7700924388639269E-017   2.3199518794873470E-016
 chl          51   2.7106807075628860E-005   1.2505753722131266E-004  0.21675468490682256     
 chl2c          52  0.59177424083067998        3.7581825176985564E-002  0.63698869999999996        5.7700924388639269E-017   2.4052665953240575E-016
 chl          52   7.4058880862041729E-005   1.2514718578842578E-004  0.59177424083067998     
 chl2c          53  0.68485973685457269        3.7925801262726190E-002  0.75269794999999995        5.7700924388639269E-017   2.1923038313094409E-016
 chl          53   8.5708268727151602E-005   1.2514718578842578E-004  0.68485973685457269     
 chl2c          54  0.47978652577250991        3.7082433371327092E-002  0.51861124999999997        5.7700924388639269E-017   1.8489892072249352E-016
 chl          54   6.0043933476075844E-005   1.2514718578100626E-004  0.47978652577250991     
 chl2c          55  0.57808279999803380        3.7357235588660491E-002  0.57808280000000001        5.7700924388639269E-017   4.9032988296856800E-006
 chl          55   7.2345435568158228E-005   1.2514718578100626E-004  0.57808279999803380     
 chl2c          56  0.57392979139413003        3.7507394187257688E-002  0.61626080000000005        5.7700924388639269E-017   2.4105573630717811E-016
 chl          56   7.1825698233113645E-005   1.2514718578842578E-004  0.57392979139413003     
 chl2c          57  0.68163462499225247        3.7727617852646313E-002  0.68163462500000005        5.7700924388639269E-017   1.7301724972362577E-006
 chl          57   8.5304655048671957E-005   1.2514718578100626E-004  0.68163462499225247     
 chl2c          58  0.69416802499680530        3.7765358178394853E-002  0.69416802499999997        5.7700924388639269E-017   4.3516591824755875E-006
 chl          58   8.6873174792659791E-005   1.2514718578842578E-004  0.69416802499680530     
 chl2c          59  0.53705127499251970        3.7173699120809672E-002  0.53705127500000005        5.7700924388639269E-017   1.1123914537047131E-006
 chl          59   6.7210455685415144E-005   1.2514718578100626E-004  0.53705127499251970     
 chl2c          60  0.64452154999618338        3.7607757740906807E-002  0.64452155000000000        5.7700924388639269E-017   3.1401090302469564E-006
 chl          60   8.0660058157234471E-005   1.2514718578100626E-004  0.64452154999618338     
 chl2c          61  0.64659089688766846        3.7805373434125003E-002  0.70794139999999994        5.7700924388639269E-017   2.1525911129321632E-016
 chl          61   8.0919031097108506E-005   1.2514718578100626E-004  0.64659089688766846     
 chl2c          62  0.68156697566551272        3.7956103087269030E-002  0.76481592499999995        5.7700924388639269E-017   1.8065062790077832E-016
 chl          62   8.5296188925810493E-005   1.2514718578100626E-004  0.68156697566551272     
 chl2c          63  0.72597904999595719        3.7855601011927406E-002  0.72597904999999996        5.7700924388639269E-017   3.7611864396556705E-006
 chl          63   9.0854235048348902E-005   1.2514718578842578E-004  0.72597904999595719     
 chl2c          64  0.38030575481619217        2.5708982294816416E-002  0.48435739999999999        1.6112592082581429E-016   1.4262159920424842E-016
 chl          64   4.7560101088405359E-005   1.2505753722131266E-004  0.38030575481619217     
 chl2c          65  0.76379974998022404        3.7953597170552002E-002  0.76379975000000000        5.7700924388639269E-017   8.5108697626177688E-007
 chl          65   9.5587389215928264E-005   1.2514718578842578E-004  0.76379974998022404     
 chl2c          66   9.7922771663800465E-002   3.1840477731474713E-002  0.35213202499999996        4.6994844461809573E-017   3.1872643680873731E-018
 chl          66   1.2245980662159827E-005   1.2505753722131266E-004   9.7922771663800465E-002
 chl2c          67  0.68498928046242924        3.7937587124568600E-002  0.75736760000000003        5.7700924388639269E-017   2.0679249680599109E-016
 chl          67   8.5724480740029431E-005   1.2514718578100626E-004  0.68498928046242924     
 chl2c          68  0.72590779999644406        3.7855407263856986E-002  0.72590779999999999        5.7700924388639269E-017   4.2754144659249727E-006
 chl          68   9.0845318311422402E-005   1.2514718578842578E-004  0.72590779999644406     
 chl2c          69  0.45524217499803649        2.1732330561541505E-002  0.45524217500000003        5.7700924388639269E-017   3.0450922858926649E-006
 chl          69   5.6931465244528281E-005   1.2505753722131266E-004  0.45524217499803649     
 chl2c          70  0.38303208476939410        3.2658010878182209E-002  0.48694062500000002        4.6994844461809573E-017   4.2177432627177674E-017
 chl          70   4.7901049198005486E-005   1.2505753722131266E-004  0.38303208476939410     
 chl2c          71  0.13792184781953923        4.3481058864416305E-002  0.23986107500000001        2.1951766519804534E-017   3.5619759691822437E-018
 chl          71   1.7248166617324248E-005   1.2505753722131266E-004  0.13792184781953923     
 chl2c          72  0.58412323583238224        3.7549776402781669E-002  0.62790522500000001        5.7700924388639269E-017   2.4168843262141691E-016
 chl          72   7.3101379118051585E-005   1.2514718578842578E-004  0.58412323583238224     
 chl2c          73  0.11485848736534435        3.1852614277819484E-002  0.35362212500000001        4.6994844461809573E-017   3.9971878269906750E-018
 chl          73   1.4363919558875220E-005   1.2505753722131266E-004  0.11485848736534435     
 chl2c          74  0.64719589999671434        3.7616827685877569E-002  0.64719590000000005        5.7700924388639269E-017   3.6778943586014290E-006
 chl          74   8.0994745533594364E-005   1.2514718578100626E-004  0.64719589999671434     
 chl2c          75  0.64785422941742432        3.7826830779512356E-002  0.71554212500000003        5.7700924388639269E-017   1.9758513486556056E-016
 chl          75   8.1077133612719816E-005   1.2514718578842578E-004  0.64785422941742432     
 chl2c          76  0.55513977499799472        3.7257729557919804E-002  0.55513977500000000        5.7700924388639269E-017   4.4339282744922268E-006
 chl          76   6.9474180560218936E-005   1.2514718578842578E-004  0.55513977499799472     
 chl2c          77  0.52973029999656951        3.7138172437479272E-002  0.52973029999999999        5.7700924388639269E-017   2.3599515097749894E-006
 chl          77   6.6294256267498866E-005   1.2514718578100626E-004  0.52973029999656951     
 chl2c          78  0.45117492498759537        4.7515248899399322E-002  0.45117492500000000        2.1951766519804534E-017   1.8011319555537831E-007
 chl          78   5.6422824974959158E-005   1.2505753722131266E-004  0.45117492498759537     
 prod   1.4546304261896042E-008   2.0597519191835387E-010   10.000000000000000     
 dcdom   1.2345763855917857E-012  -1.6533866390215702E-010
 chl2c           1  0.60826437499935926        3.7477407714772232E-002  0.60826437499999997        8.7160567136137847E-018   2.5167386744815906E-006
 chl           1   5.0040561532773963E-005   8.2267782874554629E-005  0.60826437499935926     
 chl2c           2  0.48302389995916284        3.2640259920490348E-002  0.48302390000000001        7.0318609803044244E-018   2.0087319232244022E-008
 chl           2   3.9708437121144809E-005   8.2208017293765279E-005  0.48302389995916284     
 chl2c           3  0.74407366318127721        3.7922212503796585E-002  0.75128689999999998        8.7160567136137847E-018   3.3773930858851378E-016
 chl           3   6.1213290565271806E-005   8.2267782874554629E-005  0.74407366318127721     
 chl2c           4  0.77318742499963167        3.7976509103863923E-002  0.77318742499999993        8.7160567136137847E-018   7.0755661517382496E-006
 chl           4   6.3608415201205684E-005   8.2267782874554629E-005  0.77318742499963167     
 chl2c           5  0.48489679999875135        2.5710500362372445E-002  0.48489679999999996        2.4804498047596442E-017   2.3353140693663811E-006
 chl           5   3.9862404519988794E-005   8.2208017293765279E-005  0.48489679999875135     
 chl2c           6  0.28370921087285184        3.1261039902252048E-002  0.29222855000000003        7.0318609803044244E-018   3.4216095783417277E-017
 chl           6   2.3323171713835903E-005   8.2208017293765279E-005  0.28370921087285184     
 chl2c           7  0.22770739999801284        4.3064391842467263E-002  0.22770740000000000        3.2603154450334772E-018   4.2535849868680740E-008
 chl           7   1.8719373876954967E-005   8.2208017293765279E-005  0.22770739999801284     
 chl2c           8  0.49578364998676716        4.7969800906495587E-002  0.49578364999999996        3.2603154450334772E-018   3.0280387555519952E-008
 chl           8   4.0757390872078224E-005   8.2208017293765279E-005  0.49578364998676716     
 chl2c           9  0.28700202499980010        2.4803669054600401E-002  0.28700202499999999        2.4804498047596442E-017   5.1109105428896819E-006
 chl           9   2.3593867434529221E-005   8.2208017293765279E-005  0.28700202499980010     
 chl2c          10  0.39094662499952210        2.5387016219684602E-002  0.39094662499999999        2.4804498047596442E-017   3.9666947829326489E-006
 chl          10   3.2138946908899879E-005   8.2208017293765279E-005  0.39094662499952210     
 chl2c          11  0.49334571817383310        2.1820572217820047E-002  0.49737575000000001        8.7160567136137847E-018   2.6534905553860320E-016
 chl          11   4.0556973331439524E-005   8.2208017293765279E-005  0.49334571817383310     
 chl2c          12  0.25042651017742579        4.5290941298723353E-002  0.30768942500000002        3.2603154450334772E-018   2.1935576178194499E-018
 chl          12   2.0587066879483107E-005   8.2208017293765279E-005  0.25042651017742579     
 chl2c          13  0.74829477914532794        3.7935816987997487E-002  0.75666275000000005        8.7160567136137847E-018   2.9487975871790896E-016
 chl          13   6.1560552413207165E-005   8.2267782869632135E-005  0.74829477914532794     
 chl2c          14  0.38848802925827652        4.6856526101924839E-002  0.39804095000000000        3.2603154450334772E-018   2.6387536460933489E-017
 chl          14   3.1936830627685191E-005   8.2208017293765279E-005  0.38848802925827652     
 chl2c          15  0.25607262499994177        2.0954299823745293E-002  0.25607262500000000        8.7160567136137847E-018   4.9069648500364292E-006
 chl          15   2.1051222784455084E-005   8.2208017293765279E-005  0.25607262499994177     
 chl2c          16  0.70799093210568120        3.7823443882273475E-002  0.71433214999999994        8.7160567136137847E-018   3.4757238781189421E-016
 chl          16   5.8244844279623732E-005   8.2267782874554629E-005  0.70799093210568120     
 chl2c          17  0.62093458970848270        3.7542254757581245E-002  0.62580860000000005        8.7160567136137847E-018   3.4744893931936356E-016
 chl          17   5.1082912005438119E-005   8.2267782874554629E-005  0.62093458970848270     
 chl2c          18  0.46902393770618694        2.5694475239060960E-002  0.47925950000000000        2.4804498047596442E-017   2.7236699563413839E-016
 chl          18   3.8557527982140108E-005   8.2208017293765279E-005  0.46902393770618694     
 chl2c          19  0.63367129999967486        3.7570220750293731E-002  0.63367130000000005        8.7160567136137847E-018   5.3813356712522862E-006
 chl          19   5.2130732922210021E-005   8.2267782874554629E-005  0.63367129999967486     
 chl2c          20  0.50327352765607014        3.7020645196759419E-002  0.50678202500000002        8.7160567136137847E-018   3.1680657708337893E-016
 chl          20   4.1403197297243379E-005   8.2267782869632135E-005  0.50327352765607014     
 chl2c          21  0.71973184999957229        3.7838475073783531E-002  0.71973185000000006        8.7160567136137847E-018   5.2761909885828327E-006
 chl          21   5.9210743560123457E-005   8.2267782869632135E-005  0.71973184999957229     
 chl2c          22  0.64616892499973688        3.7613353106285476E-002  0.64616892500000001        8.7160567136137847E-018   6.9140785038771755E-006
 chl          22   5.3158884822162732E-005   8.2267782874554629E-005  0.64616892499973688     
 chl2c          23  0.28086118124961768        3.2286562315070731E-002  0.41564179999999995        7.0318609803044244E-018   3.0452557346645439E-018
 chl          23   2.3089040845315915E-005   8.2208017293765279E-005  0.28086118124961768     
 chl2c          24  0.57068267006948070        3.7348402796863071E-002  0.57597492500000003        8.7160567136137847E-018   2.7067463323731764E-016
 chl          24   4.6948797988737953E-005   8.2267782869632135E-005  0.57068267006948070     
 chl2c          25  0.25733558194939615        4.5426679235459781E-002  0.31406487500000002        3.2603154450334772E-018   2.3224237406418737E-018
 chl          25   2.1155047971197110E-005   8.2208017293765279E-005  0.25733558194939615     
 chl2c          26  0.35761644403473142        4.7955660680174553E-002  0.49427735000000000        3.2603154450334772E-018   2.1084995870084237E-018
 chl          26   2.9398938815742044E-005   8.2208017293765279E-005  0.35761644403473142     
 chl2c          27  0.30378712604373331        4.5333133499525620E-002  0.30964730000000001        3.2603154450334772E-018   2.6167111228122771E-017
 chl          27   2.4973737311426482E-005   8.2208017293765279E-005  0.30378712604373331     
 chl2c          28  0.27698896179646948        3.1209236063453518E-002  0.28776342500000002        7.0318609803044244E-018   2.6010140283542339E-017
 chl          28   2.2770713361546253E-005   8.2208017293765279E-005  0.27698896179646948     
 chl2c          29  0.68676297499962791        3.7743217595736761E-002  0.68676297499999994        8.7160567136137847E-018   5.5247182942459245E-006
 chl          29   5.6498467310171991E-005   8.2267782869632135E-005  0.68676297499962791     
 chl2c          30  0.38287497003449977        2.5380056985171612E-002  0.38930277499999999        2.4804498047596442E-017   2.8759559626315562E-016
 chl          30   3.1475392157946022E-005   8.2208017293765279E-005  0.38287497003449977     
 chl2c          31  0.63559384999943747        3.7576959810037038E-002  0.63559385000000002        8.7160567136137847E-018   3.1295612031299277E-006
 chl          31   5.2288896845027257E-005   8.2267782869632135E-005  0.63559384999943747     
 chl2c          32  0.24722667499995499        2.0893126428578448E-002  0.24722667500000001        8.7160567136137847E-018   5.9160710987492218E-006
 chl          32   2.0324014773876388E-005   8.2208017293765279E-005  0.24722667499995499     
 chl2c          33  0.60343137499971777        3.7458922634011876E-002  0.60343137499999999        8.7160567136137847E-018   5.6241728198286304E-006
 chl          33   4.9642961335200345E-005   8.2267782869632135E-005  0.60343137499971777     
 chl2c          34  0.38241019999662085        2.5350269098008315E-002  0.38241020000000003        2.4804498047596442E-017   5.3672765689025019E-007
 chl          34   3.1437184334634448E-005   8.2208017293765279E-005  0.38241019999662085     
 chl2c          35  0.48310916789071445        2.5740370148566064E-002  0.49574644999999995        2.4804498047596442E-017   2.3504534725470305E-016
 chl          35   3.9715446828736407E-005   8.2208017293765279E-005  0.48310916789071445     
 chl2c          36  0.68852672919188851        3.7770393924465726E-002  0.69587337500000002        8.7160567136137847E-018   2.8421825854703144E-016
 chl          36   5.6643567460485556E-005   8.2267782874554629E-005  0.68852672919188851     
 chl2c          37  0.32978790352517495        2.1353674699533250E-002  0.33194060000000003        8.7160567136137847E-018   2.2161663110888406E-016
 chl          37   2.7111209676272179E-005   8.2208017293765279E-005  0.32978790352517495     
 chl2c          38  0.38235542816683260        2.1543295686358745E-002  0.38455722500000000        8.7160567136137847E-018   2.9103220139419842E-016
 chl          38   3.1432681651104004E-005   8.2208017293765279E-005  0.38235542816683260     
 chl2c          39  0.46038325650067091        2.5670077108751441E-002  0.47091117500000002        2.4804498047596442E-017   2.5539738733854073E-016
 chl          39   3.7847194712167131E-005   8.2208017293765279E-005  0.46038325650067091     
 chl2c          40  0.66320202021439034        3.7687445774703773E-002  0.66875547499999999        8.7160567136137847E-018   3.4804868918541079E-016
 chl          40   5.4560159800963456E-005   8.2267782874554629E-005  0.66320202021439034     
 chl2c          41  0.43154936437538233        2.5582381488167241E-002  0.44304987499999998        2.4804498047596442E-017   2.0618944202568718E-016
 chl          41   3.5476817609684848E-005   8.2208017293765279E-005  0.43154936437538233     
 chl2c          42  0.75419649629358931        3.7949995630725070E-002  0.76234377499999995        8.7160567136137847E-018   3.0754795779078198E-016
 chl          42   6.2046073598118318E-005   8.2267782869632135E-005  0.75419649629358931     
 chl2c          43  0.29539924999986311        2.1185090152268007E-002  0.29539925000000000        8.7160567136137847E-018   2.7785387656721211E-006
 chl          43   2.4284186652554039E-005   8.2208017293765279E-005  0.29539924999986311     
 chl2c          44  0.61801328800845090        3.7536352708156646E-002  0.62417262500000004        8.7160567136137847E-018   2.7293461348274698E-016
 chl          44   5.0842582988426671E-005   8.2267782869632135E-005  0.61801328800845090     
 chl2c          45  0.30899167372085889        4.6544927192009838E-002  0.37662252499999999        3.2603154450334772E-018   2.8050321236207826E-018
 chl          45   2.5401592856873846E-005   8.2208017293765279E-005  0.30899167372085889     
 chl2c          46  0.51876034999974729        3.7083195475449568E-002  0.51876034999999998        8.7160567136137847E-018   4.6413907019914887E-006
 chl          46   4.2677263835153579E-005   8.2267782869632135E-005  0.51876034999974729     
 chl2c          47  0.61456152693867760        3.7519784612651236E-002  0.61962282499999999        8.7160567136137847E-018   3.2788452072968257E-016
 chl          47   5.0558614258220710E-005   8.2267782869632135E-005  0.61456152693867760     
 chl2c          48  0.70734024517318772        3.7823212136301673E-002  0.71424949999999998        8.7160567136137847E-018   3.1866704621678028E-016
 chl          48   5.8191313704860170E-005   8.2267782869632135E-005  0.70734024517318772     
 chl2c          49  0.52869826247379959        3.7152990741888416E-002  0.53276120000000005        8.7160567136137847E-018   3.0212758478003652E-016
 chl          49   4.3494833860746322E-005   8.2267782869632135E-005  0.52869826247379959     
 chl2c          50  0.38132569999987315        2.1533072915600981E-002  0.38132569999999999        8.7160567136137847E-018   4.9976390811074690E-006
 chl          50   3.1348029740146725E-005   8.2208017293765279E-005  0.38132569999987315     
 chl2c          51  0.22204374888628223        2.0700971146093840E-002  0.22275920000000002        8.7160567136137847E-018   3.0128970237590278E-016
 chl          51   1.8253776348415963E-005   8.2208017293765279E-005  0.22204374888628223     
 chl2c          52  0.63187366652269938        3.7581825176985564E-002  0.63698869999999996        8.7160567136137847E-018   3.4292848109025050E-016
 chl          52   5.1982845601638174E-005   8.2267782874554629E-005  0.63187366652269938     
 chl2c          53  0.74497819637159979        3.7925801262726190E-002  0.75269794999999995        8.7160567136137847E-018   3.1655626050447068E-016
 chl          53   6.1287704505376100E-005   8.2267782874554629E-005  0.74497819637159979     
 chl2c          54  0.51434674280588266        3.7082433371327092E-002  0.51861124999999997        8.7160567136137847E-018   2.7259577967961268E-016
 chl          54   4.2314166156856877E-005   8.2267782869632135E-005  0.51434674280588266     
 chl2c          55  0.57808279999978807        3.7357235588660491E-002  0.57808280000000001        8.7160567136137847E-018   6.8716799155574865E-006
 chl          55   4.7557590271051545E-005   8.2267782869632135E-005  0.57808279999978807     
 chl2c          56  0.61148093432719985        3.7507394187257688E-002  0.61626080000000005        8.7160567136137847E-018   3.4357521246705547E-016
 chl          56   5.0305180737159878E-005   8.2267782874554629E-005  0.61148093432719985     
 chl2c          57  0.68163462499881944        3.7727617852646313E-002  0.68163462500000005        8.7160567136137847E-018   1.7152496528820036E-006
 chl          57   5.6076569325826002E-005   8.2267782869632135E-005  0.68163462499881944     
 chl2c          58  0.69416802499966923        3.7765358178394853E-002  0.69416802499999997        8.7160567136137847E-018   6.3496701827138599E-006
 chl          58   5.7107664359131199E-005   8.2267782874554629E-005  0.69416802499966923     
 chl2c          59  0.53705127499943695        3.7173699120809672E-002  0.53705127500000005        8.7160567136137847E-018   2.2320115532121545E-006
 chl          59   4.4182017681512773E-005   8.2267782869632135E-005  0.53705127499943695     
 chl2c          60  0.64452154999962463        3.7607757740906807E-002  0.64452155000000000        8.7160567136137847E-018   4.8224363527729120E-006
 chl          60   5.3023358930167872E-005   8.2267782869632135E-005  0.64452154999962463     
 chl2c          61  0.70099982215978895        3.7805373434125003E-002  0.70794139999999994        8.7160567136137847E-018   3.1156385725453520E-016
 chl          61   5.7669701161092260E-005   8.2267782869632135E-005  0.70099982215978895     
 chl2c          62  0.75538702726139484        3.7956103087269030E-002  0.76481592499999995        8.7160567136137847E-018   2.6702724225105243E-016
 chl          62   6.2144015941277317E-005   8.2267782869632135E-005  0.75538702726139484     
 chl2c          63  0.72597904999958018        3.7855601011927406E-002  0.72597904999999996        8.7160567136137847E-018   5.4711568602504583E-006
 chl          63   5.9724686856840900E-005   8.2267782874554629E-005  0.72597904999958018     
 chl2c          64  0.47038668311712001        2.5708982294816416E-002  0.48435739999999999        2.4804498047596442E-017   2.0225660493422991E-016
 chl          64   3.8669556580449093E-005   8.2208017293765279E-005  0.47038668311712001     
 chl2c          65  0.76379974999857236        3.7953597170552002E-002  0.76379975000000000        8.7160567136137847E-018   1.7808037917517602E-006
 chl          65   6.2836111992521654E-005   8.2267782874554629E-005  0.76379974999857236     
 chl2c          66  0.22921321485673338        3.1840477731474713E-002  0.35213202499999996        7.0318609803044244E-018   2.3086979086446449E-018
 chl          66   1.8843163930901875E-005   8.2208017293765279E-005  0.22921321485673338     
 chl2c          67  0.74914841856279257        3.7937587124568600E-002  0.75736760000000003        8.7160567136137847E-018   3.0084034183837177E-016
 chl          67   6.1630779435452112E-005   8.2267782869632135E-005  0.74914841856279257     
 chl2c          68  0.72590779999963551        3.7855407263856986E-002  0.72590779999999999        8.7160567136137847E-018   6.3013574089858345E-006
 chl          68   5.9718825277315643E-005   8.2267782874554629E-005  0.72590779999963551     
 chl2c          69  0.45524217499976150        2.1732330561541505E-002  0.45524217500000003        8.7160567136137847E-018   3.7866472961156098E-006
 chl          69   3.7424556595231709E-005   8.2208017293765279E-005  0.45524217499976150     
 chl2c          70  0.46213540553250365        3.2658010878182209E-002  0.48694062500000002        7.0318609803044244E-018   3.1896457934152559E-017
 chl          70   3.7991235410077292E-005   8.2208017293765279E-005  0.46213540553250365     
 chl2c          71  0.20829968407868457        4.3481058864416305E-002  0.23986107500000001        3.2603154450334772E-018   2.5806070431993517E-018
 chl          71   1.7123904031026344E-005   8.2208017293765279E-005  0.20829968407868457     
 chl2c          72  0.62295479389191111        3.7549776402781669E-002  0.62790522500000001        8.7160567136137847E-018   3.4434807532791505E-016
 chl          72   5.1249109724562671E-005   8.2267782874554629E-005  0.62295479389191111     
 chl2c          73  0.24741987209757244        3.1852614277819484E-002  0.35362212500000001        7.0318609803044244E-018   2.8965468575043235E-018
 chl          73   2.0339897124218429E-005   8.2208017293765279E-005  0.24741987209757244     
 chl2c          74  0.64719589999967120        3.7616827685877569E-002  0.64719590000000005        8.7160567136137847E-018   5.5510623764796044E-006
 chl          74   5.3243371775289101E-005   8.2267782869632135E-005  0.64719589999967120     
 chl2c          75  0.70790513829365975        3.7826830779512356E-002  0.71554212500000003        8.7160567136137847E-018   2.8905353714061034E-016
 chl          75   5.8237786212924366E-005   8.2267782874554629E-005  0.70790513829365975     
 chl2c          76  0.55513977499978540        3.7257729557919804E-002  0.55513977500000000        8.7160567136137847E-018   6.2581379023035088E-006
 chl          76   4.5670118474711454E-005   8.2267782874554629E-005  0.55513977499978540     
 chl2c          77  0.52973029999968368        3.7138172437479272E-002  0.52973029999999999        8.7160567136137847E-018   3.8667260077855678E-006
 chl          77   4.3579737299839072E-005   8.2267782869632135E-005  0.52973029999968368     
 chl2c          78  0.45117492499397244        4.7515248899399322E-002  0.45117492500000000        3.2603154450334772E-018   5.5052517490432789E-008
 chl          78   3.7090196036417736E-005   8.2208017293765279E-005  0.45117492499397244     
 prod   1.0519762229824936E-008   3.0634319809672437E-011   10.000000000000000     
 dcdom   1.2347581972003208E-012  -1.3773049514639063E-010
 chl2c           1  0.60826437499996855        3.7477407714772232E-002  0.60826437499999997        1.1245262339366541E-018   6.6178593012665065E-006
 chl           1   1.0986487392822866E-005   1.8062026717943878E-005  0.60826437499996855     
 chl2c           2  0.48302389996376560        3.2640259920490348E-002  0.48302390000000001        8.9264277364627829E-019   2.8738464126607405E-009
 chl           2   8.6811177024712153E-006   1.7972439258435113E-005  0.48302389996376560     
 chl2c           3  0.75074243988662848        3.7922212503796585E-002  0.75128689999999998        1.1245262339366541E-018   5.8246563879666050E-016
 chl           3   1.3559930007526659E-005   1.8062026717943878E-005  0.75074243988662848     
 chl2c           4  0.77318742499997095        3.7976509103863923E-002  0.77318742499999993        1.1245262339366541E-018   1.1574303180775102E-005
 chl           4   1.3965331928327703E-005   1.8062026717943878E-005  0.77318742499997095     
 chl2c           5  0.48489679999972551        2.5710500362372445E-002  0.48489679999999996        3.2983886781940900E-018   1.4128058320407156E-006
 chl           5   8.7147782846046269E-006   1.7972439258435113E-005  0.48489679999972551     
 chl2c           6  0.29000146554997319        3.1261039902252048E-002  0.29222855000000003        8.9264277364627829E-019   1.6983760154501972E-017
 chl           6   5.2120337244540564E-006   1.7972439258435113E-005  0.29000146554997319     
 chl2c           7  0.22770739999938569        4.3064391842467263E-002  0.22770740000000000        4.0865606918474131E-019   1.7245927695343823E-008
 chl           7   4.0924574151851474E-006   1.7972439258435113E-005  0.22770739999938569     
 chl2c           8  0.49578364999687285        4.7969800906495587E-002  0.49578364999999996        4.0865606918474131E-019   1.6061015517281600E-008
 chl           8   8.9104415348940513E-006   1.7972439258435113E-005  0.49578364999687285     
 chl2c           9  0.28700202499998229        2.4803669054600401E-002  0.28700202499999999        3.2983886781940900E-018   7.6667787646892329E-006
 chl           9   5.1581264613600576E-006   1.7972439258435113E-005  0.28700202499998229     
 chl2c          10  0.39094662499993177        2.5387016219684602E-002  0.39094662499999999        3.2983886781940900E-018   3.6934051215446993E-006
 chl          10   7.0262644711014842E-006   1.7972439258435113E-005  0.39094662499993177     
 chl2c          11  0.49702744496050688        2.1820572217820047E-002  0.49737575000000001        1.1245262339366541E-018   3.9906608007291822E-016
 chl          11   8.9327955643279117E-006   1.7972439258435113E-005  0.49702744496050688     
 chl2c          12  0.28834311697185616        4.5290941298723353E-002  0.30768942500000002        4.0865606918474131E-019   9.3702681301352515E-019
 chl          12   5.1822291553645360E-006   1.7972439258435113E-005  0.28834311697185616     
 chl2c          13  0.75606166509443651        3.7935816987997487E-002  0.75666275000000005        1.1245262339366541E-018   5.3513498776840723E-016
 chl          13   1.3656005994524070E-005   1.8062026716852991E-005  0.75606166509443651     
 chl2c          14  0.39556940260523471        4.6856526101924839E-002  0.39804095000000000        4.0865606918474131E-019   1.3016956698475673E-017
 chl          14   7.1093470608180448E-006   1.7972439258435113E-005  0.39556940260523471     
 chl2c          15  0.25607262499999278        2.0954299823745293E-002  0.25607262500000000        1.1245262339366541E-018   5.1133482175255862E-006
 chl          15   4.6022496985604032E-006   1.7972439258435113E-005  0.25607262499999278     
 chl2c          16  0.71384838613536372        3.7823443882273475E-002  0.71433214999999994        1.1245262339366541E-018   5.9266918823986443E-016
 chl          16   1.2893548622938058E-005   1.8062026717943878E-005  0.71384838613536372     
 chl2c          17  0.62543719707948275        3.7542254757581245E-002  0.62580860000000005        1.1245262339366541E-018   5.9254251318829741E-016
 chl          17   1.1296663364045549E-005   1.8062026717943878E-005  0.62543719707948275     
 chl2c          18  0.47832508630191900        2.5694475239060960E-002  0.47925950000000000        3.2983886781940900E-018   4.0460060505295012E-016
 chl          18   8.5966685593469728E-006   1.7972439258435113E-005  0.47832508630191900     
 chl2c          19  0.63367129999997707        3.7570220750293731E-002  0.63367130000000005        1.1245262339366541E-018   9.8404479013200936E-006
 chl          19   1.1445387950993816E-005   1.8062026717943878E-005  0.63367129999997707     
 chl2c          20  0.50652426765591430        3.7020645196759419E-002  0.50678202500000002        1.1245262339366541E-018   5.5995097800932723E-016
 chl          20   9.1488548551355194E-006   1.8062026716852991E-005  0.50652426765591430     
 chl2c          21  0.71973184999997097        3.7838475073783531E-002  0.71973185000000006        1.1245262339366541E-018   9.9948126521463861E-006
 chl          21   1.2999815903669505E-005   1.8062026716852991E-005  0.71973184999997097     
 chl2c          22  0.64616892499997935        3.7613353106285476E-002  0.64616892500000001        1.1245262339366541E-018   1.1375154050539712E-005
 chl          22   1.1671120387654702E-005   1.8062026717943878E-005  0.64616892499997935     
 chl2c          23  0.36380661863708885        3.2286562315070731E-002  0.41564179999999995        8.9264277364627829E-019   1.3020057080214300E-018
 chl          23   6.5384923552717473E-006   1.7972439258435113E-005  0.36380661863708885     
 chl2c          24  0.57560663727807015        3.7348402796863071E-002  0.57597492500000003        1.1245262339366541E-018   5.0615289517677034E-016
 chl          24   1.0396622460914411E-005   1.8062026716852991E-005  0.57560663727807015     
 chl2c          25  0.29498628349470313        4.5426679235459781E-002  0.31406487500000002        4.0865606918474131E-019   9.9220825999535091E-019
 chl          25   5.3016230621800726E-006   1.7972439258435113E-005  0.29498628349470313     
 chl2c          26  0.44443804798462044        4.7955660680174553E-002  0.49427735000000000        4.0865606918474131E-019   9.0061245166950537E-019
 chl          26   7.9876358215410607E-006   1.7972439258435113E-005  0.44443804798462044     
 chl2c          27  0.30813670517040676        4.5333133499525620E-002  0.30964730000000001        4.0865606918474131E-019   1.2905971319634201E-017
 chl          27   5.5379682169694640E-006   1.7972439258435113E-005  0.30813670517040676     
 chl2c          28  0.28491064513171410        3.1209236063453518E-002  0.28776342500000002        8.9264277364627829E-019   1.2826959005822107E-017
 chl          28   5.1205392637112935E-006   1.7972439258435113E-005  0.28491064513171410     
 chl2c          29  0.68676297499996675        3.7743217595736761E-002  0.68676297499999994        1.1245262339366541E-018   7.9950884009886748E-006
 chl          29   1.2404331202594842E-005   1.8062026716852991E-005  0.68676297499996675     
 chl2c          30  0.38870309420432275        2.5380056985171612E-002  0.38930277499999999        3.2983886781940900E-018   4.1615698791663688E-016
 chl          30   6.9859427501529722E-006   1.7972439258435113E-005  0.38870309420432275     
 chl2c          31  0.63559384999991642        3.7576959810037038E-002  0.63559385000000002        1.1245262339366541E-018   2.7200455995318636E-006
 chl          31   1.1480113099765942E-005   1.8062026716852991E-005  0.63559384999991642     
 chl2c          32  0.24722667499999573        2.0893126428578448E-002  0.24722667500000001        1.1245262339366541E-018   8.0227413929672960E-006
 chl          32   4.4432663995023016E-006   1.7972439258435113E-005  0.24722667499999573     
 chl2c          33  0.60343137499997967        3.7458922634011876E-002  0.60343137499999999        1.1245262339366541E-018   1.0078845844839742E-005
 chl          33   1.0899193617036969E-005   1.8062026716852991E-005  0.60343137499997967     
 chl2c          34  0.38175033994463309        2.5350269098008315E-002  0.38241020000000003        3.2983886781940900E-018   3.6486222010897366E-016
 chl          34   6.8609847965418736E-006   1.7972439258435113E-005  0.38175033994463309     
 chl2c          35  0.49466365791770145        2.5740370148566064E-002  0.49574644999999995        3.2983886781940900E-018   3.7350496700869900E-016
 chl          35   8.8903125452812153E-006   1.7972439258435113E-005  0.49466365791770145     
 chl2c          36  0.69535275633424920        3.7770393924465726E-002  0.69587337500000002        1.1245262339366541E-018   5.2258298070052146E-016
 chl          36   1.2559480063305128E-005   1.8062026717943878E-005  0.69535275633424920     
 chl2c          37  0.33176918366354519        2.1353674699533250E-002  0.33194060000000003        1.1245262339366541E-018   3.6122999544576356E-016
 chl          37   5.9627015012136691E-006   1.7972439258435113E-005  0.33176918366354519     
 chl2c          38  0.38435872881246841        2.1543295686358745E-002  0.38455722500000000        1.1245262339366541E-018   4.1868282865756568E-016
 chl          38   6.9078639070314224E-006   1.7972439258435113E-005  0.38435872881246841     
 chl2c          39  0.46997763096220618        2.5670077108751441E-002  0.47091117500000002        3.2983886781940900E-018   3.9097880076759451E-016
 chl          39   8.4466444252914838E-006   1.7972439258435113E-005  0.46997763096220618     
 chl2c          40  0.66833180377055001        3.7687445774703773E-002  0.66875547499999999        1.1245262339366541E-018   5.9315760318178487E-016
 chl          40   1.2071426896155299E-005   1.8062026717943878E-005  0.66833180377055001     
 chl2c          41  0.44211709897242757        2.5582381488167241E-002  0.44304987499999998        3.2983886781940900E-018   3.4632543571155104E-016
 chl          41   7.9459227063975003E-006   1.7972439258435113E-005  0.44211709897242757     
 chl2c          42  0.76174971415422632        3.7949995630725070E-002  0.76234377499999995        1.1245262339366541E-018   5.4963176608451177E-016
 chl          42   1.3758743688608765E-005   1.8062026716852991E-005  0.76174971415422632     
 chl2c          43  0.29539924999999184        2.1185090152268007E-002  0.29539925000000000        1.1245262339366541E-018   6.0151305081568963E-006
 chl          43   5.3090450776121417E-006   1.7972439258435113E-005  0.29539924999999184     
 chl2c          44  0.62374250583222035        3.7536352708156646E-002  0.62417262500000004        1.1245262339366541E-018   5.0893328711008634E-016
 chl          44   1.1266053804778397E-005   1.8062026716852991E-005  0.62374250583222035     
 chl2c          45  0.35390785455072427        4.6544927192009838E-002  0.37662252499999999        4.0865606918474131E-019   1.1989967594800003E-018
 chl          45   6.3605874189959808E-006   1.7972439258435113E-005  0.35390785455072427     
 chl2c          46  0.51876034999997245        3.7083195475449568E-002  0.51876034999999998        1.1245262339366541E-018   5.5023559605299321E-006
 chl          46   9.3698633013435113E-006   1.8062026716852991E-005  0.51876034999997245     
 chl2c          47  0.61924566020654581        3.7519784612651236E-002  0.61962282499999999        1.1245262339366541E-018   5.7200368719312192E-016
 chl          47   1.1184831658945900E-005   1.8062026716852991E-005  0.61924566020654581     
 chl2c          48  0.71373947077546263        3.7823212136301673E-002  0.71424949999999998        1.1245262339366541E-018   5.6199725406493138E-016
 chl          48   1.2891581390018921E-005   1.8062026716852991E-005  0.71373947077546263     
 chl2c          49  0.53246771950186578        3.7152990741888416E-002  0.53276120000000005        1.1245262339366541E-018   5.4348332138788303E-016
 chl          49   9.6174461755044843E-006   1.8062026716852991E-005  0.53246771950186578     
 chl2c          50  0.38132569999998905        2.1533072915600981E-002  0.38132569999999999        1.1245262339366541E-018   7.4589877851899625E-006
 chl          50   6.8533529809300536E-006   1.7972439258435113E-005  0.38132569999998905     
 chl2c          51  0.22269373310702445        2.0700971146093840E-002  0.22275920000000002        1.1245262339366541E-018   4.2605092341683463E-016
 chl          51   4.0023495915001575E-006   1.7972439258435113E-005  0.22269373310702445     
 chl2c          52  0.63660086185478060        3.7581825176985564E-002  0.63698869999999996        1.1245262339366541E-018   5.8787910593751214E-016
 chl          52   1.1498301775487146E-005   1.8062026717943878E-005  0.63660086185478060     
 chl2c          53  0.75212920591106569        3.7925801262726190E-002  0.75269794999999995        1.1245262339366541E-018   5.5967497192462564E-016
 chl          53   1.3584977812511581E-005   1.8062026717943878E-005  0.75212920591106569     
 chl2c          54  0.51831403641688145        3.7082433371327092E-002  0.51861124999999997        1.1245262339366541E-018   5.0851743292743738E-016
 chl          54   9.3618019734816273E-006   1.8062026716852991E-005  0.51831403641688145     
 chl2c          55  0.57808279999998347        3.7357235588660491E-002  0.57808280000000001        1.1245262339366541E-018   1.1309579339032525E-005
 chl          55   1.0441346978152885E-005   1.8062026716852991E-005  0.57808279999998347     
 chl2c          56  0.61589819795148748        3.7507394187257688E-002  0.61626080000000005        1.1245262339366541E-018   5.8854926178415034E-016
 chl          56   1.1124369706933254E-005   1.8062026717943878E-005  0.61589819795148748     
 chl2c          57  0.68163462499955718        3.7727617852646313E-002  0.68163462500000005        1.1245262339366541E-018   5.8997722147841344E-007
 chl          57   1.2311702807874072E-005   1.8062026716852991E-005  0.68163462499955718     
 chl2c          58  0.69416802499997543        3.7765358178394853E-002  0.69416802499999997        1.1245262339366541E-018   1.1046962723923753E-005
 chl          58   1.2538081414291889E-005   1.8062026717943878E-005  0.69416802499997543     
 chl2c          59  0.53705127499997385        3.7173699120809672E-002  0.53705127500000005        1.1245262339366541E-018   6.1916519179633089E-006
 chl          59   9.7002344773694905E-006   1.8062026716852991E-005  0.53705127499997385     
 chl2c          60  0.64452154999997513        3.7607757740906807E-002  0.64452155000000000        1.1245262339366541E-018   9.3697291371684024E-006
 chl          60   1.1641365455687052E-005   1.8062026716852991E-005  0.64452154999997513     
 chl2c          61  0.70743323329052710        3.7805373434125003E-002  0.70794139999999994        1.1245262339366541E-018   5.5413572963205777E-016
 chl          61   1.2777677960083196E-005   1.8062026716852991E-005  0.70743323329052710     
 chl2c          62  0.76416084259560990        3.7956103087269030E-002  0.76481592499999995        1.1245262339366541E-018   5.0163215041154078E-016
 chl          62   1.3802293554934798E-005   1.8062026716852991E-005  0.76416084259560990     
 chl2c          63  0.72597904999996976        3.7855601011927406E-002  0.72597904999999996        1.1245262339366541E-018   9.8391590366483019E-006
 chl          63   1.3112652997766967E-005   1.8062026717943878E-005  0.72597904999996976     
 chl2c          64  0.48322998487137714        2.5708982294816416E-002  0.48435739999999999        3.2983886781940900E-018   3.4237952985472312E-016
 chl          64   8.6848215509553446E-006   1.7972439258435113E-005  0.48322998487137714     
 chl2c          65  0.76379974999993916        3.7953597170552002E-002  0.76379975000000000        1.1245262339366541E-018   5.3888858979843575E-006
 chl          65   1.3795771491657755E-005   1.8062026717943878E-005  0.76379974999993916     
 chl2c          66  0.30373431452862731        3.1840477731474713E-002  0.35213202499999996        8.9264277364627829E-019   9.8633004882241162E-019
 chl          66   5.4588465185681801E-006   1.7972439258435113E-005  0.30373431452862731     
 chl2c          67  0.75677302915942046        3.7937587124568600E-002  0.75736760000000003        1.1245262339366541E-018   5.4201132051080160E-016
 chl          67   1.3668854671271220E-005   1.8062026716852991E-005  0.75677302915942046     
 chl2c          68  0.72590779999997324        3.7855407263856986E-002  0.72590779999999999        1.1245262339366541E-018   1.1077419564912649E-005
 chl          68   1.3111366078363378E-005   1.8062026717943878E-005  0.72590779999997324     
 chl2c          69  0.45524217499997133        2.1732330561541505E-002  0.45524217500000003        1.1245262339366541E-018   4.0619990194719068E-006
 chl          69   8.1818123380648724E-006   1.7972439258435113E-005  0.45524217499997133     
 chl2c          70  0.48033489616168196        3.2658010878182209E-002  0.48694062500000002        8.9264277364627829E-019   1.5803275223220227E-017
 chl          70   8.6327897449725664E-006   1.7972439258435113E-005  0.48033489616168196     
 chl2c          71  0.23986107499727924        4.3481058864416305E-002  0.23986107500000001        4.0865606918474131E-019   4.3206839274659371E-009
 chl          71   4.3108886008515500E-006   1.7972439258435113E-005  0.23986107499727924     
 chl2c          72  0.62752930512029670        3.7549776402781669E-002  0.62790522500000001        1.1245262339366541E-018   5.8934881088389983E-016
 chl          72   1.1334451075375555E-005   1.8062026717943878E-005  0.62752930512029670     
 chl2c          73  0.31364404410154684        3.1852614277819484E-002  0.35362212500000001        8.9264277364627829E-019   1.2382325888601653E-018
 chl          73   5.6369485313849944E-006   1.7972439258435113E-005  0.31364404410154684     
 chl2c          74  0.64719589999997718        3.7616827685877569E-002  0.64719590000000005        1.1245262339366541E-018   1.0277148970324202E-005
 chl          74   1.1689669636837304E-005   1.8062026716852991E-005  0.64719589999997718     
 chl2c          75  0.71499764073517547        3.7826830779512356E-002  0.71554212500000003        1.1245262339366541E-018   5.2831638202881164E-016
 chl          75   1.2914306490225577E-005   1.8062026717943878E-005  0.71499764073517547     
 chl2c          76  0.55513977499998324        3.7257729557919804E-002  0.55513977500000000        1.1245262339366541E-018   1.0330426775613091E-005
 chl          76   1.0026949448243050E-005   1.8062026717943878E-005  0.55513977499998324     
 chl2c          77  0.52973029999998100        3.7138172437479272E-002  0.52973029999999999        1.1245262339366541E-018   8.3483169002654289E-006
 chl          77   9.5680028313262063E-006   1.8062026716852991E-005  0.52973029999998100     
 chl2c          78  0.44863808040850456        4.7515248899399322E-002  0.45117492500000000        4.0865606918474131E-019   1.6303287351775745E-017
 chl          78   8.0631206491627766E-006   1.7972439258435113E-005  0.44863808040850456     
 prod   4.4834873561620309E-009   3.8493309883800720E-012   10.000000000000000     
 dcdom   1.2350182131533488E-012  -9.6337311151555275E-011
 chl2c           1  0.60826437499999630        3.7477407714772232E-002  0.60826437499999997        1.8292940530447574E-019   9.2113748829956777E-006
 chl           1   8.3031264868555116E-006   1.3650522417748965E-005  0.60826437499999630     
 chl2c           2  0.46193960828758468        3.2640259920490348E-002  0.48302390000000001        1.4226597403298579E-019   7.5277615101783796E-019
 chl           2   6.3029286200836804E-006   1.3644486220717699E-005  0.46193960828758468     
 chl2c           3  0.75120346300278495        3.7922212503796585E-002  0.75128689999999998        1.8292940530447574E-019   6.1866886217428353E-016
 chl           3   1.0254319712010171E-005   1.3650522417748965E-005  0.75120346300278495     
 chl2c           4  0.77318742499999515        3.7976509103863923E-002  0.77318742499999993        1.8292940530447574E-019   1.1464667025438959E-005
 chl           4   1.0554412278084030E-005   1.3650522417748965E-005  0.77318742499999515     
 chl2c           5  0.48474673627464759        2.5710500362372445E-002  0.48489679999999996        5.5601757971429711E-019   4.3545874383203070E-016
 chl           5   6.6141201636373054E-006   1.3644486220717699E-005  0.48474673627464759     
 chl2c           6  0.29179882788976857        3.1261039902252048E-002  0.29222855000000003        1.4226597403298579E-019   1.4115281135330323E-017
 chl           6   3.9814450863635228E-006   1.3644486220717699E-005  0.29179882788976857     
 chl2c           7  0.22770739999986941        4.3064391842467263E-002  0.22770740000000000        6.4074876709361972E-020   1.2717284985422759E-008
 chl           7   3.1069504816536713E-006   1.3644486220717699E-005  0.22770739999986941     
 chl2c           8  0.49578364999944130        4.7969800906495587E-002  0.49578364999999996        6.4074876709361972E-020   1.4096620645059465E-008
 chl           8   6.7647131808745028E-006   1.3644486220717699E-005  0.49578364999944130     
 chl2c           9  0.28700202499999727        2.4803669054600401E-002  0.28700202499999999        5.5601757971429711E-019   8.4241037208175074E-006
 chl           9   3.9159951754305395E-006   1.3644486220717699E-005  0.28700202499999727     
 chl2c          10  0.39094662499996163        2.5387016219684602E-002  0.39094662499999999        5.5601757971429711E-019   1.1072733092752783E-006
 chl          10   5.3342658378480659E-006   1.3644486220717699E-005  0.39094662499996163     
 chl2c          11  0.49732633610595295        2.1820572217820047E-002  0.49737575000000001        1.8292940530447574E-019   4.5785768940825456E-016
 chl          11   6.7857623401976938E-006   1.3644486220717699E-005  0.49732633610595295     
 chl2c          12  0.30381422376922901        4.5290941298723353E-002  0.30768942500000002        6.4074876709361972E-020   7.7283039953380492E-019
 chl          12   4.1453889898772889E-006   1.3644486220717699E-005  0.30381422376922901     
 chl2c          13  0.75658516387640240        3.7935816987997487E-002  0.75666275000000005        1.8292940530447574E-019   6.7488480198327210E-016
 chl          13   1.0327782739954835E-005   1.3650522417119465E-005  0.75658516387640240     
 chl2c          14  0.39757181167447037        4.6856526101924839E-002  0.39804095000000000        6.4074876709361972E-020   1.0806877012897892E-017
 chl          14   5.4246631061380830E-006   1.3644486220717699E-005  0.39757181167447037     
 chl2c          15  0.25607262499999756        2.0954299823745293E-002  0.25607262500000000        1.8292940530447574E-019   2.4732272162685183E-006
 chl          15   3.4939794033154773E-006   1.3644486220717699E-005  0.25607262499999756     
 chl2c          16  0.71425671901136256        3.7823443882273475E-002  0.71433214999999994        1.8292940530447574E-019   6.1866886217428353E-016
 chl          16   9.7499773548924276E-006   1.3650522417748965E-005  0.71425671901136256     
 chl2c          17  0.62575070538858235        3.7542254757581245E-002  0.62580860000000005        1.8292940530447574E-019   6.1866886217428353E-016
 chl          17   8.5418240318290713E-006   1.3650522417748965E-005  0.62575070538858235     
 chl2c          18  0.47912124568476794        2.5694475239060960E-002  0.47925950000000000        5.5601757971429711E-019   4.6173839748462705E-016
 chl          18   6.5373632347989152E-006   1.3644486220717699E-005  0.47912124568476794     
 chl2c          19  0.63367129999999683        3.7570220750293731E-002  0.63367130000000005        1.8292940530447574E-019   1.1461979291309944E-005
 chl          19   8.6499442861340861E-006   1.3650522417748965E-005  0.63367129999999683     
 chl2c          20  0.50674826075850421        3.7020645196759419E-002  0.50678202500000002        1.8292940530447574E-019   6.9568076929114966E-016
 chl          20   6.9173784933202622E-006   1.3650522417119465E-005  0.50674826075850421     
 chl2c          21  0.71973184999999618        3.7838475073783531E-002  0.71973185000000006        1.8292940530447574E-019   1.2471911640455757E-005
 chl          21   9.8247157527398118E-006   1.3650522417119465E-005  0.71973184999999618     
 chl2c          22  0.64616892499999656        3.7613353106285476E-002  0.64616892500000001        1.8292940530447574E-019   1.1288331384222418E-005
 chl          22   8.8205433963652024E-006   1.3650522417748965E-005  0.64616892499999656     
 chl2c          23  0.40450604349764141        3.2286562315070731E-002  0.41564179999999995        1.4226597403298579E-019   1.0739784114501580E-018
 chl          23   5.5192771367006020E-006   1.3644486220717699E-005  0.40450604349764141     
 chl2c          24  0.57592823197011067        3.7348402796863071E-002  0.57597492500000003        1.8292940530447574E-019   6.4979058710799130E-016
 chl          24   7.8617212411599756E-006   1.3650522417119465E-005  0.57592823197011067     
 chl2c          25  0.31025029519267622        4.5426679235459781E-002  0.31406487500000002        6.4074876709361972E-020   8.1835671260069309E-019
 chl          25   4.2332058777300691E-006   1.3644486220717699E-005  0.31025029519267622     
 chl2c          26  0.48395989047273097        4.7955660680174553E-002  0.49427735000000000        6.4074876709361972E-020   7.4278835922854283E-019
 chl          26   6.6033840569352243E-006   1.3644486220717699E-005  0.48395989047273097     
 chl2c          27  0.30936086767679877        4.5333133499525620E-002  0.30964730000000001        6.4074876709361972E-020   1.0714414231553790E-017
 chl          27   4.2210700962453525E-006   1.3644486220717699E-005  0.30936086767679877     
 chl2c          28  0.28721132719134462        3.1209236063453518E-002  0.28776342500000002        1.4226597403298579E-019   1.0648591826466504E-017
 chl          28   3.9188509962963442E-006   1.3644486220717699E-005  0.28721132719134462     
 chl2c          29  0.68676297499999339        3.7743217595736761E-002  0.68676297499999994        1.8292940530447574E-019   6.5527245344089181E-006
 chl          29   9.3746733854850650E-006   1.3650522417119465E-005  0.68676297499999339     
 chl2c          30  0.38921309376174501        2.5380056985171612E-002  0.38930277499999999        5.5601757971429711E-019   4.6971223513574668E-016
 chl          30   5.3106126947550351E-006   1.3644486220717699E-005  0.38921309376174501     
 chl2c          31  0.63559384999986879        3.7576959810037038E-002  0.63559385000000002        1.8292940530447574E-019   2.8162055865135903E-007
 chl          31   8.6761880976064751E-006   1.3650522417119465E-005  0.63559384999986879     
 chl2c          32  0.24722667499999929        2.0893126428578448E-002  0.24722667500000001        1.8292940530447574E-019   7.8305319505748600E-006
 chl          32   3.3732809604313430E-006   1.3644486220717699E-005  0.24722667499999929     
 chl2c          33  0.60343137499999733        3.7458922634011876E-002  0.60343137499999999        1.8292940530447574E-019   1.2227530874186594E-005
 chl          33   8.2371535116306865E-006   1.3650522417119465E-005  0.60343137499999733     
 chl2c          34  0.38231631645485159        2.5350269098008315E-002  0.38241020000000003        5.5601757971429711E-019   4.3293365456359401E-016
 chl          34   5.2165097118237693E-006   1.3644486220717699E-005  0.38231631645485159     
 chl2c          35  0.49559099962623765        2.5740370148566064E-002  0.49574644999999995        5.5601757971429711E-019   4.3938960703619958E-016
 chl          35   6.7620845655119101E-006   1.3644486220717699E-005  0.49559099962623765     
 chl2c          36  0.69580179181276247        3.7770393924465726E-002  0.69587337500000002        1.8292940530447574E-019   6.1866886217428353E-016
 chl          36   9.4980579574500130E-006   1.3650522417748965E-005  0.69580179181276247     
 chl2c          37  0.33191717465064452        2.1353674699533250E-002  0.33194060000000003        1.8292940530447574E-019   4.3018726539540686E-016
 chl          37   4.5288393159402686E-006   1.3644486220717699E-005  0.33191717465064452     
 chl2c          38  0.38452853544808291        2.1543295686358745E-002  0.38455722500000000        1.8292940530447574E-019   4.7143227379211614E-016
 chl          38   5.2466943033941247E-006   1.3644486220717699E-005  0.38452853544808291     
 chl2c          39  0.47077485365075600        2.5670077108751441E-002  0.47091117500000002        5.5601757971429711E-019   4.5211290653971068E-016
 chl          39   6.4234810036981316E-006   1.3644486220717699E-005  0.47077485365075600     
 chl2c          40  0.66868936197432538        3.7687445774703773E-002  0.66875547499999999        1.8292940530447574E-019   6.1866886217428353E-016
 chl          40   9.1279591261407810E-006   1.3650522417748965E-005  0.66868936197432538     
 chl2c          41  0.44291958027427897        2.5582381488167241E-002  0.44304987499999998        5.5601757971429711E-019   4.1870600486408433E-016
 chl          41   6.0434101099384657E-006   1.3644486220717699E-005  0.44291958027427897     
 chl2c          42  0.76226642045983461        3.7949995630725070E-002  0.76234377499999995        1.8292940530447574E-019   6.8710856940358467E-016
 chl          42   1.0405334860304385E-005   1.3650522417119465E-005  0.76226642045983461     
 chl2c          43  0.29539924999999900        2.1185090152268007E-002  0.29539925000000000        1.8292940530447574E-019   8.0659602344095793E-006
 chl          43   4.0305709962353289E-006   1.3644486220717699E-005  0.29539924999999900     
 chl2c          44  0.62411799646189914        3.7536352708156646E-002  0.62417262500000004        1.8292940530447574E-019   6.5223690919729655E-016
 chl          44   8.5195367016308417E-006   1.3650522417119465E-005  0.62411799646189914     
 chl2c          45  0.37208292702515600        4.6544927192009838E-002  0.37662252499999999        6.4074876709361972E-020   9.8897752822907598E-019
 chl          45   5.0768803707590501E-006   1.3644486220717699E-005  0.37208292702515600     
 chl2c          46  0.51876034999999177        3.7083195475449568E-002  0.51876034999999998        1.8292940530447574E-019   2.9992969910463954E-006
 chl          46   7.0813497867876274E-006   1.3650522417119465E-005  0.51876034999999177     
 chl2c          47  0.61957305823612141        3.7519784612651236E-002  0.61962282499999999        1.8292940530447574E-019   7.0556017199466126E-016
 chl          47   8.4574959204954384E-006   1.3650522417119465E-005  0.61957305823612141     
 chl2c          48  0.71418259621756386        3.7823212136301673E-002  0.71424949999999998        1.8292940530447574E-019   6.9736807710259858E-016
 chl          48   9.7489655395844347E-006   1.3650522417119465E-005  0.71418259621756386     
 chl2c          49  0.53272313420055550        3.7152990741888416E-002  0.53276120000000005        1.8292940530447574E-019   6.8195028808090328E-016
 chl          49   7.2719490855228242E-006   1.3650522417119465E-005  0.53272313420055550     
 chl2c          50  0.38132569999999838        2.1533072915600981E-002  0.38132569999999999        1.8292940530447574E-019   8.1914139881594188E-006
 chl          50   5.2029932592555085E-006   1.3644486220717699E-005  0.38132569999999838     
 chl2c          51  0.22274967355990308        2.0700971146093840E-002  0.22275920000000002        1.8292940530447574E-019   4.7640423303299943E-016
 chl          51   3.0393048515574631E-006   1.3644486220717699E-005  0.22274967355990308     
 chl2c          52  0.63692871843017851        3.7581825176985564E-002  0.63698869999999996        1.8292940530447574E-019   6.1866886217428353E-016
 chl          52   8.6944097494392703E-006   1.3650522417748965E-005  0.63692871843017851     
 chl2c          53  0.75269794999478157        3.7925801262726190E-002  0.75269794999999995        1.8292940530447574E-019   9.9302839730549669E-009
 chl          53   1.0274720240197454E-005   1.3650522417748965E-005  0.75269794999478157     
 chl2c          54  0.51857351505144023        3.7082433371327092E-002  0.51861124999999997        1.8292940530447574E-019   6.5187155473031172E-016
 chl          54   7.0787993921341228E-006   1.3650522417119465E-005  0.51857351505144023     
 chl2c          55  0.57808279999999768        3.7357235588660491E-002  0.57808280000000001        1.8292940530447574E-019   1.2877926638814743E-005
 chl          55   7.8911322203511563E-006   1.3650522417119465E-005  0.57808279999999768     
 chl2c          56  0.61620465839955463        3.7507394187257688E-002  0.61626080000000005        1.8292940530447574E-019   6.1866886217428353E-016
 chl          56   8.4115155034044640E-006   1.3650522417748965E-005  0.61620465839955463     
 chl2c          57  0.68157533660592451        3.7727617852646313E-002  0.68163462500000005        1.8292940530447574E-019   7.1671971324715155E-016
 chl          57   9.3038594112949168E-006   1.3650522417119465E-005  0.68157533660592451     
 chl2c          58  0.69416802499999608        3.7765358178394853E-002  0.69416802499999997        1.8292940530447574E-019   1.1437638011900013E-005
 chl          58   9.4757561869469710E-006   1.3650522417748965E-005  0.69416802499999608     
 chl2c          59  0.53705127499999739        3.7173699120809672E-002  0.53705127500000005        1.8292940530447574E-019   1.0114233547020083E-005
 chl          59   7.3310304685300552E-006   1.3650522417119465E-005  0.53705127499999739     
 chl2c          60  0.64452154999999689        3.7607757740906807E-002  0.64452155000000000        1.8292940530447574E-019   1.1862358088740261E-005
 chl          60   8.7980558665915410E-006   1.3650522417119465E-005  0.64452154999999689     
 chl2c          61  0.70787505388943506        3.7805373434125003E-002  0.70794139999999994        1.8292940530447574E-019   6.9086306781966171E-016
 chl          61   9.6628642916373826E-006   1.3650522417119465E-005  0.70787505388943506     
 chl2c          62  0.76473308775624127        3.7956103087269030E-002  0.76481592499999995        1.8292940530447574E-019   6.4579501772718688E-016
 chl          62   1.0439006157529559E-005   1.3650522417119465E-005  0.76473308775624127     
 chl2c          63  0.72597904999999574        3.7855601011927406E-002  0.72597904999999996        1.8292940530447574E-019   1.1464667303562712E-005
 chl          63   9.9099932968410387E-006   1.3650522417748965E-005  0.72597904999999574     
 chl2c          64  0.48420052065545410        2.5708982294816416E-002  0.48435739999999999        5.5601757971429711E-019   4.1560805154355538E-016
 chl          64   6.6066673321476788E-006   1.3644486220717699E-005  0.48420052065545410     
 chl2c          65  0.76379974999999367        3.7953597170552002E-002  0.76379975000000000        1.8292940530447574E-019   8.5634242001763545E-006
 chl          65   1.0426265610045968E-005   1.3650522417748965E-005  0.76379974999999367     
 chl2c          66  0.34161360597858764        3.1840477731474713E-002  0.35213202499999996        1.4226597403298579E-019   8.1350693973427434E-019
 chl          66   4.6611421395845245E-006   1.3644486220717699E-005  0.34161360597858764     
 chl2c          67  0.75729053434657279        3.7937587124568600E-002  0.75736760000000003        1.8292940530447574E-019   6.8070965786654741E-016
 chl          67   1.0337411415370270E-005   1.3650522417119465E-005  0.75729053434657279     
 chl2c          68  0.72590779999999577        3.7855407263856986E-002  0.72590779999999999        1.8292940530447574E-019   1.1390161660703861E-005
 chl          68   9.9090206971187738E-006   1.3650522417748965E-005  0.72590779999999577     
 chl2c          69  0.45524217499998881        2.1732330561541505E-002  0.45524217500000003        1.8292940530447574E-019   1.6957803905374127E-006
 chl          69   6.2115455838769023E-006   1.3644486220717699E-005  0.45524217499998881     
 chl2c          70  0.48565943237934861        3.2658010878182209E-002  0.48694062500000002        1.4226597403298579E-019   1.3129991779262129E-017
 chl          70   6.6265734330616012E-006   1.3644486220717699E-005  0.48565943237934861     
 chl2c          71  0.23986107499979964        4.3481058864416305E-002  0.23986107500000001        6.4074876709361972E-020   9.1998041422808491E-009
 chl          71   3.2727811327213006E-006   1.3644486220717699E-005  0.23986107499979964     
 chl2c          72  0.62784694183217582        3.7549776402781669E-002  0.62790522500000001        1.8292940530447574E-019   6.1866886217428353E-016
 chl          72   8.5704387543952466E-006   1.3650522417748965E-005  0.62784694183217582     
 chl2c          73  0.34512234886477766        3.1852614277819484E-002  0.35362212500000001        1.4226597403298579E-019   1.0213534766752261E-018
 chl          73   4.7090171335471853E-006   1.3644486220717699E-005  0.34512234886477766     
 chl2c          74  0.64719589999999705        3.7616827685877569E-002  0.64719590000000005        1.8292940530447574E-019   1.2648318898527000E-005
 chl          74   8.8345621412177678E-006   1.3650522417119465E-005  0.64719589999999705     
 chl2c          75  0.71546643827018119        3.7826830779512356E-002  0.71554212500000003        1.8292940530447574E-019   6.1866886217428353E-016
 chl          75   9.7664906547541149E-006   1.3650522417748965E-005  0.71546643827018119     
 chl2c          76  0.55513977499999712        3.7257729557919804E-002  0.55513977500000000        1.8292940530447574E-019   9.9589636806776342E-006
 chl          76   7.5779479436215772E-006   1.3650522417748965E-005  0.55513977499999712     
 chl2c          77  0.52973029999999777        3.7138172437479272E-002  0.52973029999999999        1.8292940530447574E-019   1.1329127540326610E-005
 chl          77   7.2310953351773888E-006   1.3650522417119465E-005  0.52973029999999777     
 chl2c          78  0.45069404863541168        4.7515248899399322E-002  0.45117492500000000        6.4074876709361972E-020   1.3547249520000546E-017
 chl          78   6.1494887363653473E-006   1.3644486220717699E-005  0.45069404863541168     
 prod   3.6967369009278845E-009   6.0554731782835969E-013   10.000000000000000     
 dcdom   1.2363909156871581E-012  -7.5300855956440544E-011
 chl2c           1  0.60826437499999930        3.7477407714772232E-002  0.60826437499999997        3.5471142071835170E-020   1.0415619162540345E-005
 chl           1   5.6822277728054444E-006   9.3417073337649454E-006  0.60826437499999930     
 chl2c           2  0.47777286575067457        3.2640259920490348E-002  0.48302390000000001        2.6989793954518292E-020   5.9308210972559281E-019
 chl           2   4.4603431231066602E-006   9.3356978657601016E-006  0.47777286575067457     
 chl2c           3  0.75127124974153081        3.7922212503796585E-002  0.75128689999999998        3.5471142071835170E-020   6.3962620343526786E-016
 chl           3   7.0181561433572139E-006   9.3417073337649454E-006  0.75127124974153081     
 chl2c           4  0.77318742499999904        3.7976509103863923E-002  0.77318742499999993        3.5471142071835170E-020   1.1229888268276930E-005
 chl           4   7.2228906384973244E-006   9.3417073337649454E-006  0.77318742499999904     
 chl2c           5  0.48486865163144038        2.5710500362372445E-002  0.48489679999999996        1.1171406239023997E-019   4.6654984007649849E-016
 chl           5   4.5265872362096159E-006   9.3356978657601016E-006  0.48486865163144038     
 chl2c           6  0.29212591343347549        3.1261039902252048E-002  0.29222855000000003        2.6989793954518292E-020   1.1224323746430794E-017
 chl           6   2.7271992665741172E-006   9.3356978657601016E-006  0.29212591343347549     
 chl2c           7  0.22770739999995987        4.3064391842467263E-002  0.22770740000000000        1.1939490040991191E-020   7.7056692146672441E-009
 chl           7   2.1258074881974071E-006   9.3356978657601016E-006  0.22770739999995987     
 chl2c           8  0.49578364999986413        4.7969800906495587E-002  0.49578364999999996        1.1939490040991191E-020   1.0800894066726327E-008
 chl           8   4.6284863631824844E-006   9.3356978657601016E-006  0.49578364999986413     
 chl2c           9  0.28700202499999944        2.4803669054600401E-002  0.28700202499999999        1.1171406239023997E-019   8.4594846117967669E-006
 chl           9   2.6793641922613222E-006   9.3356978657601016E-006  0.28700202499999944     
 chl2c          10  0.39092889251594987        2.5387016219684602E-002  0.39094662499999999        1.1171406239023997E-019   4.8141931295063203E-016
 chl          10   3.6495940275251132E-006   9.3356978657601016E-006  0.39092889251594987     
 chl2c          11  0.49736668257856403        2.1820572217820047E-002  0.49737575000000001        3.5471142071835170E-020   4.8386328694286732E-016
 chl          11   4.6432650770488818E-006   9.3356978657601016E-006  0.49736668257856403     
 chl2c          12  0.30676401064215980        4.5290941298723353E-002  0.30768942500000002        1.1939490040991191E-020   6.0888675350642019E-019
 chl          12   2.8638561194440202E-006   9.3356978657601016E-006  0.30676401064215980     
 chl2c          13  0.75664913871874906        3.7935816987997487E-002  0.75666275000000005        3.5471142071835170E-020   7.4600727842436716E-016
 chl          13   7.0683948080328782E-006   9.3417073334702389E-006  0.75664913871874906     
 chl2c          14  0.39793079892473149        4.6856526101924839E-002  0.39804095000000000        1.1939490040991191E-020   8.5842498370717127E-018
 chl          14   3.7149617102418277E-006   9.3356978657601016E-006  0.39793079892473149     
 chl2c          15  0.25607025588306320        2.0954299823745293E-002  0.25607262500000000        3.5471142071835170E-020   4.9088636310451086E-016
 chl          15   2.3905945413321564E-006   9.3356978657601016E-006  0.25607025588306320     
 chl2c          16  0.71433214999997885        3.7823443882273475E-002  0.71433214999999994        3.5471142071835170E-020   4.3009363939036400E-007
 chl          16   6.6730818843988835E-006   9.3417073337649454E-006  0.71433214999997885     
 chl2c          17  0.62579774088463380        3.7542254757581245E-002  0.62580860000000005        3.5471142071835170E-020   6.3962620343526786E-016
 chl          17   5.8460193454755190E-006   9.3417073337649454E-006  0.62579774088463380     
 chl2c          18  0.47923314694971197        2.5694475239060960E-002  0.47925950000000000        1.1171406239023997E-019   4.8681565731377408E-016
 chl          18   4.4739758671799230E-006   9.3356978657601016E-006  0.47923314694971197     
 chl2c          19  0.63367129999999949        3.7570220750293731E-002  0.63367130000000005        3.5471142071835170E-020   1.1249566283414195E-005
 chl          19   5.9195718304063621E-006   9.3417073337649454E-006  0.63367129999999949     
 chl2c          20  0.50677605692655403        3.7020645196759419E-002  0.50678202500000002        3.5471142071835170E-020   7.6321747843860196E-016
 chl          20   4.7341536074179213E-006   9.3417073334702389E-006  0.50677605692655403     
 chl2c          21  0.71973184999999940        3.7838475073783531E-002  0.71973185000000006        3.5471142071835170E-020   1.3207765549550651E-005
 chl          21   6.7235243012770967E-006   9.3417073334702389E-006  0.71973184999999940     
 chl2c          22  0.64616892499999934        3.7613353106285476E-002  0.64616892500000001        3.5471142071835170E-020   1.0510976759017317E-005
 chl          22   6.0363209855235048E-006   9.3417073337649454E-006  0.64616892499999934     
 chl2c          23  0.41564179999649370        3.2286562315070731E-002  0.41564179999999995        2.6989793954518292E-020   6.6492119061490802E-010
 chl          23   3.8803062651479530E-006   9.3356978657601016E-006  0.41564179999649370     
 chl2c          24  0.57596680840751746        3.7348402796863071E-002  0.57597492500000003        3.5471142071835170E-020   7.2489060033891301E-016
 chl          24   5.3805133579359541E-006   9.3417073334702389E-006  0.57596680840751746     
 chl2c          25  0.31406487499669389        4.5426679235459781E-002  0.31406487500000002        1.1939490040991191E-020   1.7810242006104788E-010
 chl          25   2.9320147832168481E-006   9.3356978657601016E-006  0.31406487499669389     
 chl2c          26  0.49179764199295745        4.7955660680174553E-002  0.49427735000000000        1.1939490040991191E-020   5.8521087668239857E-019
 chl          26   4.5912741967395034E-006   9.3356978657601016E-006  0.49179764199295745     
 chl2c          27  0.30958005831620589        4.5333133499525620E-002  0.30964730000000001        1.1939490040991191E-020   8.5105470518748164E-018
 chl          27   2.8901458897044913E-006   9.3356978657601016E-006  0.30958005831620589     
 chl2c          28  0.28763136554273777        3.1209236063453518E-002  0.28776342500000002        2.6989793954518292E-020   8.4580822154841795E-018
 chl          28   2.6852395254230005E-006   9.3356978657601016E-006  0.28763136554273777     
 chl2c          29  0.68676297499999739        3.7743217595736761E-002  0.68676297499999994        3.5471142071835170E-020   3.2737689479212347E-006
 chl          29   6.4155387199133143E-006   9.3417073334702389E-006  0.68676297499999739     
 chl2c          30  0.38928559875229413        2.5380056985171612E-002  0.38930277499999999        1.1171406239023997E-019   4.9283936771326396E-016
 chl          30   3.6342527334429356E-006   9.3356978657601016E-006  0.38928559875229413     
 chl2c          31  0.63558453276274607        3.7576959810037038E-002  0.63559385000000002        3.5471142071835170E-020   7.6897288777492258E-016
 chl          31   5.9374446907500005E-006   9.3417073334702389E-006  0.63558453276274607     
 chl2c          32  0.24722667499999984        2.0893126428578448E-002  0.24722667500000001        3.5471142071835170E-020   5.8639740249683644E-006
 chl          32   2.3080335421564649E-006   9.3356978657601016E-006  0.24722667499999984     
 chl2c          33  0.60343137499999944        3.7458922634011876E-002  0.60343137499999999        3.5471142071835170E-020   1.2897950288444354E-005
 chl          33   5.6370793010835242E-006   9.3417073334702389E-006  0.60343137499999944     
 chl2c          34  0.38239261804059532        2.5350269098008315E-002  0.38241020000000003        1.1171406239023997E-019   4.6456826945819543E-016
 chl          34   3.5699019481240033E-006   9.3356978657601016E-006  0.38239261804059532     
 chl2c          35  0.49571722041578103        2.5740370148566064E-002  0.49574644999999995        1.1171406239023997E-019   4.6962242878793256E-016
 chl          35   4.6278661966561371E-006   9.3356978657601016E-006  0.49571722041578103     
 chl2c          36  0.69585994824731090        3.7770393924465726E-002  0.69587337500000002        3.5471142071835170E-020   6.3962620343526786E-016
 chl          36   6.5005199818152000E-006   9.3417073337649454E-006  0.69585994824731090     
 chl2c          37  0.33193637392801317        2.1353674699533250E-002  0.33194060000000003        3.5471142071835170E-020   4.6240604790755806E-016
 chl          37   3.0988576976478996E-006   9.3356978657601016E-006  0.33193637392801317     
 chl2c          38  0.38455191714856518        2.1543295686358745E-002  0.38455722500000000        3.5471142071835170E-020   4.9413131033365638E-016
 chl          38   3.5900605121978153E-006   9.3356978657601016E-006  0.38455191714856518     
 chl2c          39  0.47088534211701638        2.5670077108751441E-002  0.47091117500000002        1.1171406239023997E-019   4.7946746291306063E-016
 chl          39   4.3960432834195451E-006   9.3356978657601016E-006  0.47088534211701638     
 chl2c          40  0.66875547499998067        3.7687445774703773E-002  0.66875547499999999        3.5471142071835170E-020   4.1059859490328675E-007
 chl          40   6.2473179253027787E-006   9.3417073337649454E-006  0.66875547499998067     
 chl2c          41  0.44304987499999449        2.5582381488167241E-002  0.44304987499999998        1.1171406239023997E-019   1.9879796243926091E-006
 chl          41   4.1361797724627284E-006   9.3356978657601016E-006  0.44304987499999449     
 chl2c          42  0.76234377499999373        3.7949995630725070E-002  0.76234377499999995        3.5471142071835170E-020   1.6285006101783786E-006
 chl          42   7.1215924335428275E-006   9.3417073334702389E-006  0.76234377499999373     
 chl2c          43  0.29539924999999978        2.1185090152268007E-002  0.29539925000000000        3.5471142071835170E-020   8.5961786349261079E-006
 chl          43   2.7577581477721328E-006   9.3356978657601016E-006  0.29539924999999978     
 chl2c          44  0.62416312040213218        3.7536352708156646E-002  0.62417262500000004        3.5471142071835170E-020   7.2696625320184988E-016
 chl          44   5.8307491991422662E-006   9.3417073334702389E-006  0.62416312040213218     
 chl2c          45  0.37553899192413603        4.6544927192009838E-002  0.37662252499999999        1.1939490040991191E-020   7.7924663525184453E-019
 chl          45   3.5059185654158568E-006   9.3356978657601016E-006  0.37553899192413603     
 chl2c          46  0.51876034999995468        3.7083195475449568E-002  0.51876034999999998        3.5471142071835170E-020   1.0543248808210310E-007
 chl          46   4.8461073659081646E-006   9.3417073334702389E-006  0.51876034999995468     
 chl2c          47  0.61961399687302665        3.7519784612651236E-002  0.61962282499999999        3.5471142071835170E-020   7.7130337623868045E-016
 chl          47   5.7882526185095589E-006   9.3417073334702389E-006  0.61961399687302665     
 chl2c          48  0.71423766680198952        3.7823212136301673E-002  0.71424949999999998        3.5471142071835170E-020   7.6460254489752152E-016
 chl          48   6.6721992498048189E-006   9.3417073334702389E-006  0.71423766680198952     
 chl2c          49  0.53275450494265253        3.7152990741888416E-002  0.53276120000000005        3.5471142071835170E-020   7.5188356850103456E-016
 chl          49   4.9768366657620839E-006   9.3417073334702389E-006  0.53275450494265253     
 chl2c          50  0.38132569999999966        2.1533072915600981E-002  0.38132569999999999        3.5471142071835170E-020   7.7781512205502241E-006
 chl          50   3.5599415236494735E-006   9.3356978657601016E-006  0.38132569999999966     
 chl2c          51  0.22275743227993894        2.0700971146093840E-002  0.22275920000000002        3.5471142071835170E-020   4.9785117700932544E-016
 chl          51   2.0795960851180265E-006   9.3356978657601016E-006  0.22275743227993894     
 chl2c          52  0.63697744942511614        3.7581825176985564E-002  0.63698869999999996        3.5471142071835170E-020   6.3962620343526786E-016
 chl          52   5.9504569107374970E-006   9.3417073337649454E-006  0.63697744942511614     
 chl2c          53  0.75269794999999562        3.7925801262726190E-002  0.75269794999999995        3.5471142071835170E-020   2.2854445641116606E-006
 chl          53   7.0314839596247989E-006   9.3417073337649454E-006  0.75269794999999562     
 chl2c          54  0.51860468560982553        3.7082433371327092E-002  0.51861124999999997        3.5471142071835170E-020   7.2665649406338811E-016
 chl          54   4.8446531947333347E-006   9.3417073334702389E-006  0.51860468560982553     
 chl2c          55  0.57808279999999945        3.7357235588660491E-002  0.57808280000000001        3.5471142071835170E-020   1.2396838193951250E-005
 chl          55   5.4002803321130044E-006   9.3417073334702389E-006  0.57808279999999945     
 chl2c          56  0.61625026970362062        3.7507394187257688E-002  0.61626080000000005        3.5471142071835170E-020   6.3962620343526786E-016
 chl          56   5.7568296639249382E-006   9.3417073337649454E-006  0.61625026970362062     
 chl2c          57  0.68162406553077937        3.7727617852646313E-002  0.68163462500000005        3.5471142071835170E-020   7.8036834802016906E-016
 chl          57   6.3675325316386806E-006   9.3417073334702389E-006  0.68162406553077937     
 chl2c          58  0.69416802499999919        3.7765358178394853E-002  0.69416802499999997        3.5471142071835170E-020   1.1249382526937337E-005
 chl          58   6.4847145300076207E-006   9.3417073337649454E-006  0.69416802499999919     
 chl2c          59  0.53705127499999972        3.7173699120809672E-002  0.53705127500000005        3.5471142071835170E-020   1.2423298998772686E-005
 chl          59   5.0169758341170394E-006   9.3417073334702389E-006  0.53705127499999972     
 chl2c          60  0.64452154999999944        3.7607757740906807E-002  0.64452155000000000        3.5471142071835170E-020   1.2676384848789430E-005
 chl          60   6.0209316902145998E-006   9.3417073334702389E-006  0.64452154999999944     
 chl2c          61  0.70792969299431963        3.7805373434125003E-002  0.70794139999999994        3.5471142071835170E-020   7.5925347078939598E-016
 chl          61   6.6132720046263702E-006   9.3417073334702389E-006  0.70792969299431963     
 chl2c          62  0.76480154631788311        3.7956103087269030E-002  0.76481592499999995        3.5471142071835170E-020   7.2149242080058079E-016
 chl          62   7.1445522138871471E-006   9.3417073334702389E-006  0.76480154631788311     
 chl2c          63  0.72597904999999918        3.7855601011927406E-002  0.72597904999999996        3.5471142071835170E-020   1.1229909324405762E-005
 chl          63   6.7818838155447003E-006   9.3417073337649454E-006  0.72597904999999918     
 chl2c          64  0.48432833331127562        2.5708982294816416E-002  0.48435739999999999        1.1171406239023997E-019   4.5080435695824992E-016
 chl          64   4.5215429876212233E-006   9.3356978657601016E-006  0.48432833331127562     
 chl2c          65  0.76379974999999900        3.7953597170552002E-002  0.76379975000000000        3.5471142071835170E-020   1.0068679737379447E-005
 chl          65   7.1351937261028224E-006   9.3417073337649454E-006  0.76379974999999900     
 chl2c          66  0.34954051896762411        3.1840477731474713E-002  0.35213202499999996        2.6989793954518292E-020   6.4094446318495128E-019
 chl          66   3.2632046769227267E-006   9.3356978657601016E-006  0.34954051896762411     
 chl2c          67  0.75735405136963818        3.7937587124568600E-002  0.75736760000000003        3.5471142071835170E-020   7.5085392764915718E-016
 chl          67   7.0749798957131446E-006   9.3417073334702389E-006  0.75735405136963818     
 chl2c          68  0.72590779999999921        3.7855407263856986E-002  0.72590779999999999        3.5471142071835170E-020   1.1246529073880518E-005
 chl          68   6.7812182188971699E-006   9.3417073337649454E-006  0.72590779999999921     
 chl2c          69  0.45523430458964315        2.1732330561541505E-002  0.45524217500000003        3.5471142071835170E-020   4.6700902157966670E-016
 chl          69   4.2499299257783155E-006   9.3356978657601016E-006  0.45523430458964315     
 chl2c          70  0.48663425046404651        3.2658010878182209E-002  0.48694062500000002        2.6989793954518292E-020   1.0437478361423215E-017
 chl          70   4.5430703334629658E-006   9.3356978657601016E-006  0.48663425046404651     
 chl2c          71  0.23986107499996692        4.3481058864416305E-002  0.23986107500000001        1.1939490040991191E-020   1.0378434321436202E-008
 chl          71   2.2392705259561147E-006   9.3356978657601016E-006  0.23986107499996692     
 chl2c          72  0.62789429300154320        3.7549776402781669E-002  0.62790522500000001        3.5471142071835170E-020   6.3962620343526786E-016
 chl          72   5.8656047217616714E-006   9.3417073337649454E-006  0.62789429300154320     
 chl2c          73  0.35153758246610795        3.1852614277819484E-002  0.35362212500000001        2.6989793954518292E-020   8.0476671117234906E-019
 chl          73   3.2818486583633096E-006   9.3356978657601016E-006  0.35153758246610795     
 chl2c          74  0.64719589999999949        3.7616827685877569E-002  0.64719590000000005        3.5471142071835170E-020   1.3316029250631584E-005
 chl          74   6.0459146852218665E-006   9.3417073334702389E-006  0.64719589999999949     
 chl2c          75  0.71552792851835600        3.7826830779512356E-002  0.71554212500000003        3.5471142071835170E-020   6.3962620343526786E-016
 chl          75   6.6842524973535656E-006   9.3417073337649454E-006  0.71552792851835600     
 chl2c          76  0.55513977499999922        3.7257729557919804E-002  0.55513977500000000        3.5471142071835170E-020   7.8555940709258363E-006
 chl          76   5.1859533073821145E-006   9.3417073337649454E-006  0.55513977499999922     
 chl2c          77  0.52973029999999965        3.7138172437479272E-002  0.52973029999999999        3.5471142071835170E-020   1.2489468952371232E-005
 chl          77   4.9485854282713864E-006   9.3417073334702389E-006  0.52973029999999965     
 chl2c          78  0.45106212846665888        4.7515248899399322E-002  0.45117492500000000        1.1939490040991191E-020   1.0770636010638717E-017
 chl          78   4.2109797500513959E-006   9.3356978657601016E-006  0.45106212846665888     
 prod   2.9116657956396088E-009   1.1325682850536590E-013   10.000000000000000     
 dcdom   1.2377877141817998E-012  -5.4270913271927342E-011
 chl2c           1  0.60826437499999986        3.7477407714772232E-002  0.60826437499999997        8.2635047452900388E-021   1.0926900667148684E-005
 chl           1   3.0614679538973695E-006   5.0331205964468496E-006  0.60826437499999986     
 chl2c           2  0.48137241819767101        3.2640259920490348E-002  0.48302390000000001        6.1552465113675817E-021   4.3330278949919656E-019
 chl           2   2.4199128091711872E-006   5.0271114789494918E-006  0.48137241819767101     
 chl2c           3  0.75128339819254131        3.7922212503796585E-002  0.75128689999999998        8.2635047452900388E-021   6.6596534443119974E-016
 chl           3   3.7812999452114595E-006   5.0331205964468496E-006  0.75128339819254131     
 chl2c           4  0.77318742499999971        3.7976509103863923E-002  0.77318742499999993        8.2635047452900388E-021   1.1019625011817450E-005
 chl           4   3.8915455536812020E-006   5.0331205964468496E-006  0.77318742499999971     
 chl2c           5  0.48489034815761173        2.5710500362372445E-002  0.48489679999999996        2.6874064397349916E-020   4.8968011209850617E-016
 chl           5   2.4375978352549455E-006   5.0271114789494918E-006  0.48489034815761173     
 chl2c           6  0.29222854999991793        3.1261039902252048E-002  0.29222855000000003        6.1552465113675817E-021   3.2028638746641517E-009
 chl           6   1.4690654981813530E-006   5.0271114789494918E-006  0.29222854999991793     
 chl2c           7  0.22770739999997947        4.3064391842467263E-002  0.22770740000000000        2.6745058055592479E-021   3.3792104093099274E-009
 chl           7   1.1447104843816404E-006   5.0271114789494918E-006  0.22770739999997947     
 chl2c           8  0.49578364999995639        4.7969800906495587E-002  0.49578364999999996        2.6745058055592479E-021   7.5393235863389181E-009
 chl           8   2.4923596779902580E-006   5.0271114789494918E-006  0.49578364999995639     
 chl2c           9  0.28700202499999988        2.4803669054600401E-002  0.28700202499999999        2.6874064397349916E-020   8.2709892650174569E-006
 chl           9   1.4427911743592484E-006   5.0271114789494918E-006  0.28700202499999988     
 chl2c          10  0.39094252517949912        2.5387016219684602E-002  0.39094662499999999        2.6874064397349916E-020   5.0092060585556911E-016
 chl          10   1.9653116559393609E-006   5.0271114789494918E-006  0.39094252517949912     
 chl2c          11  0.49737371694125487        2.1820572217820047E-002  0.49737575000000001        8.2635047452900388E-021   5.0274967238229100E-016
 chl          11   2.5003531217631575E-006   5.0271114789494918E-006  0.49737371694125487     
 chl2c          12  0.30740509634093888        4.5290941298723353E-002  0.30768942500000002        2.6745058055592479E-021   4.4485302269370002E-019
 chl          12   1.5453596885031083E-006   5.0271114789494918E-006  0.30740509634093888     
 chl2c          13  0.75665980011825906        3.7935816987997487E-002  0.75666275000000005        8.2635047452900388E-021   8.0192304723052755E-016
 chl          13   3.8083600244138968E-006   5.0331205963613831E-006  0.75665980011825906     
 chl2c          14  0.39800756291223399        4.6856526101924839E-002  0.39804095000000000        2.6745058055592479E-021   6.3453281872233953E-018
 chl          14   2.0008283882248034E-006   5.0271114789494918E-006  0.39800756291223399     
 chl2c          15  0.25607209164615574        2.0954299823745293E-002  0.25607262500000000        8.2635047452900388E-021   5.0797724436423010E-016
 chl          15   1.2873029513529958E-006   5.0271114789494918E-006  0.25607209164615574     
 chl2c          16  0.71433214999999917        3.7823443882273475E-002  0.71433214999999994        8.2635047452900388E-021   2.6200566298479264E-006
 chl          16   3.5953198568691563E-006   5.0331205964468496E-006  0.71433214999999917     
 chl2c          17  0.62580617023639196        3.7542254757581245E-002  0.62580860000000005        8.2635047452900388E-021   6.6596534443119974E-016
 chl          17   3.1497579248003078E-006   5.0331205964468496E-006  0.62580617023639196     
 chl2c          18  0.47925338792238681        2.5694475239060960E-002  0.47925950000000000        2.6874064397349916E-020   5.0495237524406027E-016
 chl          18   2.4092602077500643E-006   5.0271114789494918E-006  0.47925338792238681     
 chl2c          19  0.63367129999999994        3.7570220750293731E-002  0.63367130000000005        8.2635047452900388E-021   1.1166530609354526E-005
 chl          19   3.1893440714072500E-006   5.0331205964468496E-006  0.63367129999999994     
 chl2c          20  0.50678072394626439        3.7020645196759419E-002  0.50678202500000002        8.2635047452900388E-021   8.1560586722659502E-016
 chl          20   2.5506884995328755E-006   5.0331205963613831E-006  0.50678072394626439     
 chl2c          21  0.71973184999999995        3.7838475073783531E-002  0.71973185000000006        8.2635047452900388E-021   1.3535171532986913E-005
 chl          21   3.6224971980922811E-006   5.0331205963613831E-006  0.71973184999999995     
 chl2c          22  0.64616892499999989        3.7613353106285476E-002  0.64616892500000001        8.2635047452900388E-021   9.3213148014096588E-006
 chl          22   3.2522461252014192E-006   5.0331205964468496E-006  0.64616892499999989     
 chl2c          23  0.41564179999984269        3.2286562315070731E-002  0.41564179999999995        6.1552465113675817E-021   3.3816231533283323E-009
 chl          23   2.0894776639104381E-006   5.0271114789494918E-006  0.41564179999984269     
 chl2c          24  0.57597317869928744        3.7348402796863071E-002  0.57597492500000003        8.2635047452900388E-021   7.8491222083899061E-016
 chl          24   2.8989424686631190E-006   5.0331205963613831E-006  0.57597317869928744     
 chl2c          25  0.31406487499994129        4.5426679235459781E-002  0.31406487500000002        2.6745058055592479E-021   2.2453804447687709E-009
 chl          25   1.5788391382470422E-006   5.0271114789494918E-006  0.31406487499994129     
 chl2c          26  0.49351439888953119        4.7955660680174553E-002  0.49427735000000000        2.6745058055592479E-021   4.2755045966773592E-019
 chl          26   2.4809518996844206E-006   5.0271114789494918E-006  0.49351439888953119     
 chl2c          27  0.30962691909141715        4.5333133499525620E-002  0.30964730000000001        2.6745058055592479E-021   6.2906571649906760E-018
 chl          27   1.5565290391562287E-006   5.0271114789494918E-006  0.30962691909141715     
 chl2c          28  0.28772266594759688        3.1209236063453518E-002  0.28776342500000002        6.1552465113675817E-021   6.2517419838231013E-018
 chl          28   1.4464139167391143E-006   5.0271114789494918E-006  0.28772266594759688     
 chl2c          29  0.68676297499999595        3.7743217595736761E-002  0.68676297499999994        8.2635047452900388E-021   4.9202522191478470E-007
 chl          29   3.4565608742908972E-006   5.0331205963613831E-006  0.68676297499999595     
 chl2c          30  0.38929877744064439        2.5380056985171612E-002  0.38930277499999999        2.6874064397349916E-020   5.0942350110371360E-016
 chl          30   1.9570483528128667E-006   5.0271114789494918E-006  0.38929877744064439     
 chl2c          31  0.63559181482791760        3.7576959810037038E-002  0.63559385000000002        8.2635047452900388E-021   8.2014592360613343E-016
 chl          31   3.1990102540891023E-006   5.0331205963613831E-006  0.63559181482791760     
 chl2c          32  0.24722667499999995        2.0893126428578448E-002  0.24722667500000001        8.2635047452900388E-021   3.1519171991425883E-006
 chl          32   1.2428360557950152E-006   5.0271114789494918E-006  0.24722667499999995     
 chl2c          33  0.60343137499999988        3.7458922634011876E-002  0.60343137499999999        8.2635047452900388E-021   1.3250769178201712E-005
 chl          33   3.0371428820031688E-006   5.0331205963613831E-006  0.60343137499999988     
 chl2c          34  0.38240617478635769        2.5350269098008315E-002  0.38241020000000003        2.6874064397349916E-020   4.8816741368077921E-016
 chl          34   1.9223984708896643E-006   5.0271114789494918E-006  0.38240617478635769     
 chl2c          35  0.49573973826137557        2.5740370148566064E-002  0.49574644999999995        2.6874064397349916E-020   4.9201876724642025E-016
 chl          35   2.4921389287851775E-006   5.0271114789494918E-006  0.49573973826137557     
 chl2c          36  0.69587037071436930        3.7770393924465726E-002  0.69587337500000002        8.2635047452900388E-021   6.6596534443119974E-016
 chl          36   3.5023994952995969E-006   5.0331205964468496E-006  0.69587037071436930     
 chl2c          37  0.33193966425064836        2.1353674699533250E-002  0.33194060000000003        8.2635047452900388E-021   4.8651280493580001E-016
 chl          37   1.6686976964730746E-006   5.0271114789494918E-006  0.33193966425064836     
 chl2c          38  0.38455602781146225        2.1543295686358745E-002  0.38455722500000000        8.2635047452900388E-021   5.1037845566639449E-016
 chl          38   1.9332060217102220E-006   5.0271114789494918E-006  0.38455602781146225     
 chl2c          39  0.47090520906531114        2.5670077108751441E-002  0.47091117500000002        2.6874064397349916E-020   4.9945613760135969E-016
 chl          39   2.3672929819893358E-006   5.0271114789494918E-006  0.47090520906531114     
 chl2c          40  0.66875547499999921        3.7687445774703773E-002  0.66875547499999999        8.2635047452900388E-021   2.5936232755982444E-006
 chl          40   3.3659269552090921E-006   5.0331205964468496E-006  0.66875547499999921     
 chl2c          41  0.44304987499999937        2.5582381488167241E-002  0.44304987499999998        2.6874064397349916E-020   4.5273291166405661E-006
 chl          41   2.2272611123596343E-006   5.0271114789494918E-006  0.44304987499999937     
 chl2c          42  0.76234377499999939        3.7949995630725070E-002  0.76234377499999995        8.2635047452900388E-021   4.6454456695323526E-006
 chl          42   3.8369681554603849E-006   5.0331205963613831E-006  0.76234377499999939     
 chl2c          43  0.29539924999999995        2.1185090152268007E-002  0.29539925000000000        8.2635047452900388E-021   8.5592676435007379E-006
 chl          43   1.4850049605480703E-006   5.0271114789494918E-006  0.29539924999999995     
 chl2c          44  0.62417057859795966        3.7536352708156646E-002  0.62417262500000004        8.2635047452900388E-021   7.8659527984704792E-016
 chl          44   3.1415257947841921E-006   5.0331205963613831E-006  0.62417057859795966     
 chl2c          45  0.37628967314760486        4.6544927192009838E-002  0.37662252499999999        2.6745058055592479E-021   5.6936551760874332E-019
 chl          45   1.8916501352904767E-006   5.0271114789494918E-006  0.37628967314760486     
 chl2c          46  0.51875899406237991        3.7083195475449568E-002  0.51876034999999998        8.2635047452900388E-021   8.2002480372046109E-016
 chl          46   2.6109765775630767E-006   5.0331205963613831E-006  0.51875899406237991     
 chl2c          47  0.61962089513514085        3.7519784612651236E-002  0.61962282499999999        8.2635047452900388E-021   8.2197924041145273E-016
 chl          47   3.1186266892405542E-006   5.0331205963613831E-006  0.61962089513514085     
 chl2c          48  0.71424949999999876        3.7823212136301673E-002  0.71424949999999998        8.2635047452900388E-021   1.5761481301862892E-006
 chl          48   3.5949038693908134E-006   5.0331205963613831E-006  0.71424949999999876     
 chl2c          49  0.53275974610503962        3.7152990741888416E-002  0.53276120000000005        8.2635047452900388E-021   8.0661305307101573E-016
 chl          49   2.6814440510335362E-006   5.0331205963613831E-006  0.53275974610503962     
 chl2c          50  0.38132569999999988        2.1533072915600981E-002  0.38132569999999999        8.2635047452900388E-021   6.4730449114916989E-006
 chl          50   1.9169668036884497E-006   5.0271114789494918E-006  0.38132569999999988     
 chl2c          51  0.22275880043662860        2.0700971146093840E-002  0.22275920000000002        8.2635047452900388E-021   5.1312022887494679E-016
 chl          51   1.1198333227119947E-006   5.0271114789494918E-006  0.22275880043662860     
 chl2c          52  0.63698869999999752        3.7581825176985564E-002  0.63698869999999996        8.2635047452900388E-021   6.8538989390112977E-007
 chl          52   3.2060409456738910E-006   5.0331205964468496E-006  0.63698869999999752     
 chl2c          53  0.75269794999999939        3.7925801262726190E-002  0.75269794999999995        8.2635047452900388E-021   4.8435811708750136E-006
 chl          53   3.7884195550483181E-006   5.0331205964468496E-006  0.75269794999999939     
 chl2c          54  0.51860983679799011        3.7082433371327092E-002  0.51861124999999997        8.2635047452900388E-021   7.8634426239659660E-016
 chl          54   2.6102258510635794E-006   5.0331205963613831E-006  0.51860983679799011     
 chl2c          55  0.57808279999999990        3.7357235588660491E-002  0.57808280000000001        8.2635047452900388E-021   1.0872925646018926E-005
 chl          55   2.9095604470822577E-006   5.0331205963613831E-006  0.57808279999999990     
 chl2c          56  0.61625844381123096        3.7507394187257688E-002  0.61626080000000005        8.2635047452900388E-021   6.6596534443119974E-016
 chl          56   3.1017030662805900E-006   5.0331205964468496E-006  0.61625844381123096     
 chl2c          57  0.68163230953525888        3.7727617852646313E-002  0.68163462500000005        8.2635047452900388E-021   8.2908283562736849E-016
 chl          57   3.4307376162672890E-006   5.0331205963613831E-006  0.68163230953525888     
 chl2c          58  0.69416802499999986        3.7765358178394853E-002  0.69416802499999997        8.2635047452900388E-021   1.1175818133732965E-005
 chl          58   3.4938313840223310E-006   5.0331205964468496E-006  0.69416802499999986     
 chl2c          59  0.53705127499999994        3.7173699120809672E-002  0.53705127500000005        8.2635047452900388E-021   1.3501736944722033E-005
 chl          59   2.7030438335046409E-006   5.0331205963613831E-006  0.53705127499999994     
 chl2c          60  0.64452154999999989        3.7607757740906807E-002  0.64452155000000000        8.2635047452900388E-021   1.3120042201802199E-005
 chl          60   3.2439546881037625E-006   5.0331205963613831E-006  0.64452154999999989     
 chl2c          61  0.70793885128791600        3.7805373434125003E-002  0.70794139999999994        8.2635047452900388E-021   8.1246856036875326E-016
 chl          61   3.5631416133816285E-006   5.0331205963613831E-006  0.70793885128791600     
 chl2c          62  0.76481592499999862        3.7956103087269030E-002  0.76481592499999995        8.2635047452900388E-021   1.7632007505858826E-006
 chl          62   3.8494107845426763E-006   5.0331205963613831E-006  0.76481592499999862     
 chl2c          63  0.72597904999999985        3.7855601011927406E-002  0.72597904999999996        8.2635047452900388E-021   1.1019724086499849E-005
 chl          63   3.6539401091439164E-006   5.0331205964468496E-006  0.72597904999999985     
 chl2c          64  0.48435079916432988        2.5708982294816416E-002  0.48435739999999999        2.6874064397349916E-020   4.7756269765453570E-016
 chl          64   2.4348854623173627E-006   5.0271114789494918E-006  0.48435079916432988     
 chl2c          65  0.76379974999999978        3.7953597170552002E-002  0.76379975000000000        8.2635047452900388E-021   1.0773818683363435E-005
 chl          65   3.8442962532859537E-006   5.0331205964468496E-006  0.76379974999999978     
 chl2c          66  0.35131897855053917        3.1840477731474713E-002  0.35213202499999996        6.1552465113675817E-021   4.6828175034454655E-019
 chl          66   1.7661196698442257E-006   5.0271114789494918E-006  0.35131897855053917     
 chl2c          67  0.75736465881224546        3.7937587124568600E-002  0.75736760000000003        8.2635047452900388E-021   8.0579263540242846E-016
 chl          67   3.8119076632241243E-006   5.0331205963613831E-006  0.75736465881224546     
 chl2c          68  0.72590779999999988        3.7855407263856986E-002  0.72590779999999999        8.2635047452900388E-021   1.1176170691024135E-005
 chl          68   3.6535814993014196E-006   5.0331205964468496E-006  0.72590779999999988     
 chl2c          69  0.45524042759006417        2.1732330561541505E-002  0.45524217500000003        8.2635047452900388E-021   4.9003014428211012E-016
 chl          69   2.2885443792198863E-006   5.0271114789494918E-006  0.45524042759006417     
 chl2c          70  0.48684613106544694        3.2658010878182209E-002  0.48694062500000002        6.1552465113675817E-021   7.7211013695988916E-018
 chl          70   2.4474297739612570E-006   5.0271114789494918E-006  0.48684613106544694     
 chl2c          71  0.23986107499999079        4.3481058864416305E-002  0.23986107500000001        2.6745058055592479E-021   8.3533849118595770E-009
 chl          71   1.2058083634856187E-006   5.0271114789494918E-006  0.23986107499999079     
 chl2c          72  0.62790277892844470        3.7549776402781669E-002  0.62790522500000001        8.2635047452900388E-021   6.6596534443119974E-016
 chl          72   3.1603104091909678E-006   5.0331205964468496E-006  0.62790277892844470     
 chl2c          73  0.35296884463601585        3.1852614277819484E-002  0.35362212500000001        6.1552465113675817E-021   5.8801939841205493E-019
 chl          73   1.7744137305812551E-006   5.0271114789494918E-006  0.35296884463601585     
 chl2c          74  0.64719589999999994        3.7616827685877569E-002  0.64719590000000005        8.2635047452900388E-021   1.3611906659251442E-005
 chl          74   3.2574150141706415E-006   5.0331205963613831E-006  0.64719589999999994     
 chl2c          75  0.71553894848332078        3.7826830779512356E-002  0.71554212500000003        8.2635047452900388E-021   6.6596534443119974E-016
 chl          75   3.6013938191713231E-006   5.0331205964468496E-006  0.71553894848332078     
 chl2c          76  0.55513977499999978        3.7257729557919804E-002  0.55513977500000000        8.2635047452900388E-021   5.3748474642827845E-006
 chl          76   2.7940854354593687E-006   5.0331205964468496E-006  0.55513977499999978     
 chl2c          77  0.52973029999999988        3.7138172437479272E-002  0.52973029999999999        8.2635047452900388E-021   1.3045865225654437E-005
 chl          77   2.6661964834466939E-006   5.0331205963613831E-006  0.52973029999999988     
 chl2c          78  0.45114076751473536        4.7515248899399322E-002  0.45117492500000000        2.6745058055592479E-021   7.9686488331325548E-018
 chl          78   2.2679349309954100E-006   5.0271114789494918E-006  0.45114076751473536     
 prod   2.1266311206515815E-009   2.5468011979990094E-014   10.000000000000000     
 dcdom   1.2391845859417904E-012  -3.3241929959792123E-011
 chl2c           1  0.60826437499999997        3.7477407714772232E-002  0.60826437499999997        1.9078352945264084E-021   1.1274986122538520E-005
 chl           1   4.4001491946515130E-007   7.2339419757264483E-007  0.60826437499999997     
 chl2c           2  0.48243131865653349        3.2640259920490348E-002  0.48302390000000001        1.3907188723356953E-021   2.7344217015308297E-019
 chl           2   3.4681388212963243E-007   7.1888757781197505E-007  0.48243131865653349     
 chl2c           3  0.75128613164281444        3.7922212503796585E-002  0.75128689999999998        1.9078352945264084E-021   7.0074323596706008E-016
 chl           3   5.4347602834721017E-007   7.2339419757264483E-007  0.75128613164281444     
 chl2c           4  0.77318742499999993        3.7976509103863923E-002  0.77318742499999993        1.9078352945264084E-021   1.0885141057995771E-005
 chl           4   5.5931929688113449E-007   7.2339419757264483E-007  0.77318742499999993     
 chl2c           5  0.48489532149330300        2.5710500362372445E-002  0.48489679999999996        6.3907632202649926E-021   5.0815563669679105E-016
 chl           5   3.4858522316067951E-007   7.1888757781197505E-007  0.48489532149330300     
 chl2c           6  0.29222854999999698        3.1261039902252048E-002  0.29222855000000003        1.3907188723356953E-021   1.9449353411106148E-008
 chl           6   2.1007947447700346E-007   7.1888757781197505E-007  0.29222854999999698     
 chl2c           7  0.22770739999998443        4.3064391842467263E-002  0.22770740000000000        5.9329327423626021E-022   9.8775945394816319E-010
 chl           7   1.6369602123585133E-007   7.1888757781197505E-007  0.22770739999998443     
 chl2c           8  0.49578364999998409        4.7969800906495587E-002  0.49578364999999996        5.9329327423626021E-022   4.5887534893273491E-009
 chl           8   3.5641270726726857E-007   7.1888757781197505E-007  0.49578364999998409     
 chl2c           9  0.28700202499999994        2.4803669054600401E-002  0.28700202499999999        6.3907632202649926E-021   7.8493055391955463E-006
 chl           9   2.0632219057938185E-007   7.1888757781197505E-007  0.28700202499999994     
 chl2c          10  0.39094567899481980        2.5387016219684602E-002  0.39094662499999999        6.3907632202649926E-021   5.1625361112304132E-016
 chl          10   2.8104599222864396E-007   7.1888757781197505E-007  0.39094567899481980     
 chl2c          11  0.49737529404877245        2.1820572217820047E-002  0.49737575000000001        1.9078352945264084E-021   5.1756072180764562E-016
 chl          11   3.5755692040224089E-007   7.1888757781197505E-007  0.49737529404877245     
 chl2c          12  0.30758941821250807        4.5290941298723353E-002  0.30768942500000002        5.9329327423626021E-022   2.8073328885318244E-019
 chl          12   2.2112221181938453E-007   7.1888757781197505E-007  0.30758941821250807     
 chl2c          13  0.75666274999999972        3.7935816987997487E-002  0.75666275000000005        1.9078352945264084E-021   1.3752918474913591E-006
 chl          13   5.4736544286803369E-007   7.2339419757089126E-007  0.75666274999999972     
 chl2c          14  0.39802945892318009        4.6856526101924839E-002  0.39804095000000000        5.9329327423626021E-022   4.0899845902474706E-018
 chl          14   2.8613843362309594E-007   7.1888757781197505E-007  0.39802945892318009     
 chl2c          15  0.25607250500429574        2.0954299823745293E-002  0.25607262500000000        1.9078352945264084E-021   5.2128026994770840E-016
 chl          15   1.8408734286678302E-007   7.1888757781197505E-007  0.25607250500429574     
 chl2c          16  0.71433214999999983        3.7823443882273475E-002  0.71433214999999994        1.9078352945264084E-021   4.6662685437742978E-006
 chl          16   5.1674373244959206E-007   7.2339419757264483E-007  0.71433214999999983     
 chl2c          17  0.62580806686812029        3.7542254757581245E-002  0.62580860000000005        1.9078352945264084E-021   7.0074323596706008E-016
 chl          17   4.5270592436655194E-007   7.2339419757264483E-007  0.62580806686812029     
 chl2c          18  0.47925808620641946        2.5694475239060960E-002  0.47925950000000000        6.3907632202649926E-021   5.1913093059090558E-016
 chl          18   3.4453268473973560E-007   7.1888757781197505E-007  0.47925808620641946     
 chl2c          19  0.63367130000000005        3.7570220750293731E-002  0.63367130000000005        1.9078352945264084E-021   1.1279240612745623E-005
 chl          19   4.5839414158831473E-007   7.2339419757264483E-007  0.63367130000000005     
 chl2c          20  0.50678173974109919        3.7020645196759419E-002  0.50678202500000002        1.9078352945264084E-021   8.5884311696649002E-016
 chl          20   3.6660296996359271E-007   7.2339419757089126E-007  0.50678173974109919     
 chl2c          21  0.71973185000000006        3.7838475073783531E-002  0.71973185000000006        1.9078352945264084E-021   1.3796140845328960E-005
 chl          21   5.2064984409696315E-007   7.2339419757089126E-007  0.71973185000000006     
 chl2c          22  0.64616892500000001        3.7613353106285476E-002  0.64616892500000001        1.9078352945264084E-021   8.0887654327454605E-006
 chl          22   4.6743485099675350E-007   7.2339419757264483E-007  0.64616892500000001     
 chl2c          23  0.41564179999996625        3.2286562315070731E-002  0.41564179999999995        1.3907188723356953E-021   3.5688635008002161E-009
 chl          23   2.9879972683938510E-007   7.1888757781197505E-007  0.41564179999996625     
 chl2c          24  0.57597454630603884        3.7348402796863071E-002  0.57597492500000003        1.9078352945264084E-021   8.3565953267526837E-016
 chl          24   4.1665664474631509E-007   7.2339419757089126E-007  0.57597454630603884     
 chl2c          25  0.31406487499998842        4.5426679235459781E-002  0.31406487500000002        5.9329327423626021E-022   2.5260041673246745E-009
 chl          25   2.2577733726456238E-007   7.1888757781197505E-007  0.31406487499998842     
 chl2c          26  0.49400888653634734        4.7955660680174553E-002  0.49427735000000000        5.9329327423626021E-022   2.6981103710616749E-019
 chl          26   3.5513685185970557E-007   7.1888757781197505E-007  0.49400888653634734     
 chl2c          27  0.30964028522263737        4.5333133499525620E-002  0.30964730000000001        5.9329327423626021E-022   4.0546212664617522E-018
 chl          27   2.2259655463671087E-007   7.1888757781197505E-007  0.30964028522263737     
 chl2c          28  0.28774913562865839        3.1209236063453518E-002  0.28776342500000002        1.3907188723356953E-021   4.0294507464517766E-018
 chl          28   2.0685927912957573E-007   7.1888757781197505E-007  0.28774913562865839     
 chl2c          29  0.68676244875334913        3.7743217595736761E-002  0.68676297499999994        1.9078352945264084E-021   8.5493865207643217E-016
 chl          29   4.9679997053774929E-007   7.2339419757089126E-007  0.68676244875334913     
 chl2c          30  0.38930184780208027        2.5380056985171612E-002  0.38930277499999999        6.3907632202649926E-021   5.2230507703963606E-016
 chl          30   2.7986426240416364E-007   7.1888757781197505E-007  0.38930184780208027     
 chl2c          31  0.63559340306209489        3.7576959810037038E-002  0.63559385000000002        1.9078352945264084E-021   8.6222926960280601E-016
 chl          31   4.5978457978945619E-007   7.2339419757089126E-007  0.63559340306209489     
 chl2c          32  0.24722667499999995        2.0893126428578448E-002  0.24722667500000001        1.9078352945264084E-021   1.0922185522662962E-006
 chl          32   1.7772818556125832E-007   7.1888757781197505E-007  0.24722667499999995     
 chl2c          33  0.60343137499999999        3.7458922634011876E-002  0.60343137499999999        1.9078352945264084E-021   1.3442956897971953E-005
 chl          33   4.3651875530722455E-007   7.2339419757089126E-007  0.60343137499999999     
 chl2c          34  0.38240927843995359        2.5350269098008315E-002  0.38241020000000003        6.3907632202649926E-021   5.0705723305030030E-016
 chl          34   2.7490927991052336E-007   7.1888757781197505E-007  0.38240927843995359     
 chl2c          35  0.49574490972452845        2.5740370148566064E-002  0.49574644999999995        6.3907632202649926E-021   5.0984974748772724E-016
 chl          35   3.5638485736448247E-007   7.1888757781197505E-007  0.49574490972452845     
 chl2c          36  0.69587271580789423        3.7770393924465726E-002  0.69587337500000002        1.9078352945264084E-021   7.0074323596706008E-016
 chl          36   5.0339028486454878E-007   7.2339419757264483E-007  0.69587271580789423     
 chl2c          37  0.33194039221860272        2.1353674699533250E-002  0.33194060000000003        1.9078352945264084E-021   5.0585342892088670E-016
 chl          37   2.3862782453998828E-007   7.1888757781197505E-007  0.33194039221860272     
 chl2c          38  0.38455695525908301        2.1543295686358745E-002  0.38455722500000000        1.9078352945264084E-021   5.2298074501945147E-016
 chl          38   2.7645321809695027E-007   7.1888757781197505E-007  0.38455695525908301     
 chl2c          39  0.47090979963030399        2.5670077108751441E-002  0.47091117500000002        6.3907632202649926E-021   5.1520492402188453E-016
 chl          39   3.3853120522415174E-007   7.1888757781197505E-007  0.47090979963030399     
 chl2c          40  0.66875547499999988        3.7687445774703773E-002  0.66875547499999999        1.9078352945264084E-021   4.6380328538444139E-006
 chl          40   4.8377383020993782E-007   7.2339419757264483E-007  0.66875547499999988     
 chl2c          41  0.44304987499999987        2.5582381488167241E-002  0.44304987499999998        6.3907632202649926E-021   6.1792336932179579E-006
 chl          41   3.1850305148864823E-007   7.1888757781197505E-007  0.44304987499999987     
 chl2c          42  0.76234377499999995        3.7949995630725070E-002  0.76234377499999995        1.9078352945264084E-021   7.1855812535141278E-006
 chl          42   5.5147506338928903E-007   7.2339419757089126E-007  0.76234377499999995     
 chl2c          43  0.29539925000000000        2.1185090152268007E-002  0.29539925000000000        1.9078352945264084E-021   8.4658582019189477E-006
 chl          43   2.1235885131997407E-007   7.1888757781197505E-007  0.29539925000000000     
 chl2c          44  0.62417218095849281        3.7536352708156646E-002  0.62417262500000004        1.9078352945264084E-021   8.3694407846221447E-016
 chl          44   4.5152253399054202E-007   7.2339419757089126E-007  0.62417218095849281     
 chl2c          45  0.37650546399556689        4.6544927192009838E-002  0.37662252499999999        5.9329327423626021E-022   3.5933933280710554E-019
 chl          45   2.7066510104474689E-007   7.1888757781197505E-007  0.37650546399556689     
 chl2c          46  0.51876005223965871        3.7083195475449568E-002  0.51876034999999998        1.9078352945264084E-021   8.6213907594717307E-016
 chl          46   3.7526801172174156E-007   7.2339419757089126E-007  0.51876005223965871     
 chl2c          47  0.61962240091196108        3.7519784612651236E-002  0.61962282499999999        1.9078352945264084E-021   8.6359352446315832E-016
 chl          47   4.4823124950465716E-007   7.2339419757089126E-007  0.61962240091196108     
 chl2c          48  0.71424949999999987        3.7823212136301673E-002  0.71424949999999998        1.9078352945264084E-021   3.8788197653401960E-006
 chl          48   5.1668394391791018E-007   7.2339419757089126E-007  0.71424949999999987     
 chl2c          49  0.53276088225150975        3.7152990741888416E-002  0.53276120000000005        1.9078352945264084E-021   8.5210341385175010E-016
 chl          49   3.8539613091349098E-007   7.2339419757089126E-007  0.53276088225150975     
 chl2c          50  0.38132569999999999        2.1533072915600981E-002  0.38132569999999999        1.9078352945264084E-021   4.8159983430403100E-006
 chl          50   2.7413030883045586E-007   7.1888757781197505E-007  0.38132569999999999     
 chl2c          51  0.22275910982378158        2.0700971146093840E-002  0.22275920000000002        1.9078352945264084E-021   5.2491621337531981E-016
 chl          51   1.6013875689677008E-007   7.1888757781197505E-007  0.22275910982378158     
 chl2c          52  0.63698869999999985        3.7581825176985564E-002  0.63698869999999996        1.9078352945264084E-021   2.4237417914610509E-006
 chl          52   4.6079392949934207E-007   7.2339419757264483E-007  0.63698869999999985     
 chl2c          53  0.75269794999999995        3.7925801262726190E-002  0.75269794999999995        1.9078352945264084E-021   6.8607458194780371E-006
 chl          53   5.4449732955482467E-007   7.2339419757264483E-007  0.75269794999999995     
 chl2c          54  0.51861094338215630        3.7082433371327092E-002  0.51861124999999997        1.9078352945264084E-021   8.3675259558043603E-016
 chl          54   3.7516014723941787E-007   7.2339419757089126E-007  0.51861094338215630     
 chl2c          55  0.57808280000000001        3.7357235588660491E-002  0.57808280000000001        1.9078352945264084E-021   9.0505963406202357E-006
 chl          55   4.1818174323553400E-007   7.2339419757089126E-007  0.57808280000000001     
 chl2c          56  0.61626028301172786        3.7507394187257688E-002  0.61626080000000005        1.9078352945264084E-021   7.0074323596706008E-016
 chl          56   4.4579911292515987E-007   7.2339419757264483E-007  0.61626028301172786     
 chl2c          57  0.68163411489142922        3.7727617852646313E-002  0.68163462500000005        1.9078352945264084E-021   8.6886284086924599E-016
 chl          57   4.9309016357883011E-007   7.2339419757089126E-007  0.68163411489142922     
 chl2c          58  0.69416802499999997        3.7765358178394853E-002  0.69416802499999997        1.9078352945264084E-021   1.1334284214963266E-005
 chl          58   5.0215712142546267E-007   7.2339419757264483E-007  0.69416802499999997     
 chl2c          59  0.53705127500000005        3.7173699120809672E-002  0.53705127500000005        1.9078352945264084E-021   1.3954913667759784E-005
 chl          59   3.8849977613304908E-007   7.2339419757089126E-007  0.53705127500000005     
 chl2c          60  0.64452155000000000        3.7607757740906807E-002  0.64452155000000000        1.9078352945264084E-021   1.3491014508989366E-005
 chl          60   4.6624314947939705E-007   7.2339419757089126E-007  0.64452155000000000     
 chl2c          61  0.70794084181336647        3.7805373434125003E-002  0.70794139999999994        1.9078352945264084E-021   8.5649676894612216E-016
 chl          61   5.1212029719124149E-007   7.2339419757089126E-007  0.70794084181336647     
 chl2c          62  0.76481592499999973        3.7956103087269030E-002  0.76481592499999995        1.9078352945264084E-021   4.0647964271385927E-006
 chl          62   5.5326340235481371E-007   7.2339419757089126E-007  0.76481592499999973     
 chl2c          63  0.72597904999999996        3.7855601011927406E-002  0.72597904999999996        1.9078352945264084E-021   1.0885361863990033E-005
 chl          63   5.2516903232930097E-007   7.2339419757264483E-007  0.72597904999999996     
 chl2c          64  0.48435589861287248        2.5708982294816416E-002  0.48435739999999999        6.3907632202649926E-021   4.9929886146323626E-016
 chl          64   3.4819743875275048E-007   7.1888757781197505E-007  0.48435589861287248     
 chl2c          65  0.76379975000000000        3.7953597170552002E-002  0.76379975000000000        1.9078352945264084E-021   1.1209497529501483E-005
 chl          65   5.5252830725743670E-007   7.2339419757264483E-007  0.76379975000000000     
 chl2c          66  0.35184050436984898        3.1840477731474713E-002  0.35213202499999996        1.3907188723356953E-021   2.9552308871336895E-019
 chl          66   2.5293376796258437E-007   7.1888757781197505E-007  0.35184050436984898     
 chl2c          67  0.75736695739181970        3.7937587124568600E-002  0.75736760000000003        1.9078352945264084E-021   8.5148638714088243E-016
 chl          67   5.4787486240916282E-007   7.2339419757089126E-007  0.75736695739181970     
 chl2c          68  0.72590779999999999        3.7855407263856986E-002  0.72590779999999999        1.9078352945264084E-021   1.1344337144326202E-005
 chl          68   5.2511749049272392E-007   7.2339419757264483E-007  0.72590779999999999     
 chl2c          69  0.45524178615024857        2.1732330561541505E-002  0.45524217500000003        1.9078352945264084E-021   5.0840951015418168E-016
 chl          69   3.2726766496434933E-007   7.1888757781197505E-007  0.45524178615024857     
 chl2c          70  0.48690752331322967        3.2658010878182209E-002  0.48694062500000002        1.3907188723356953E-021   4.9806006568894858E-018
 chl          70   3.5003177005307544E-007   7.1888757781197505E-007  0.48690752331322967     
 chl2c          71  0.23986107499999676        4.3481058864416305E-002  0.23986107500000001        5.9329327423626021E-022   5.2867446506757968E-009
 chl          71   1.7243314721812416E-007   7.1888757781197505E-007  0.23986107499999676     
 chl2c          72  0.62790522499999968        3.7549776402781669E-002  0.62790522500000001        1.9078352945264084E-021   1.1434949010448571E-006
 chl          72   4.5422299639054578E-007   7.2339419757264483E-007  0.62790522499999968     
 chl2c          73  0.35338797731112098        3.1852614277819484E-002  0.35362212500000001        1.3907188723356953E-021   3.7111685299944684E-019
 chl          73   2.5404622703706494E-007   7.1888757781197505E-007  0.35338797731112098     
 chl2c          74  0.64719590000000005        3.7616827685877569E-002  0.64719590000000005        1.9078352945264084E-021   1.3850904091211637E-005
 chl          74   4.6817775875167082E-007   7.2339419757089126E-007  0.64719590000000005     
 chl2c          75  0.71554142801736409        3.7826830779512356E-002  0.71554212500000003        1.9078352945264084E-021   7.0074323596706008E-016
 chl          75   5.1761851715060549E-007   7.2339419757264483E-007  0.71554142801736409     
 chl2c          76  0.55513977499999989        3.7257729557919804E-002  0.55513977500000000        1.9078352945264084E-021   3.3568675178171477E-006
 chl          76   4.0158489207678352E-007   7.2339419757264483E-007  0.55513977499999989     
 chl2c          77  0.52973029999999999        3.7138172437479272E-002  0.52973029999999999        1.9078352945264084E-021   1.3444901714262920E-005
 chl          77   3.8320382529748750E-007   7.2339419757089126E-007  0.52973029999999999     
 chl2c          78  0.45116317952431761        4.7515248899399322E-002  0.45117492500000000        5.9329327423626021E-022   5.1409978566181780E-018
 chl          78   3.2433560532618593E-007   7.1888757781197505E-007  0.45116317952431761     
 prod   1.3416527456300105E-009   5.6732900749730300E-015   10.000000000000000     
 dcdom   1.2405918327339682E-012  -1.2214408074412162E-011
 chl2c           1  0.60826437499999997        3.7477407714772232E-002  0.60826437499999997        4.1971569520066711E-022   1.1358475640524388E-005
 chl           1   5.3594906362521317E-010   8.8111203886502999E-010  0.60826437499999997     
 chl2c           2  0.48287514148158134        3.2640259920490348E-002  0.48302390000000001        3.0056412091763522E-022   2.3562901357015340E-019
 chl           2   6.2450622992160931E-011   1.2933078890859209E-010  0.48287514148158134     
 chl2c           3  0.75128673910685084        3.7922212503796585E-002  0.75128689999999998        4.1971569520066711E-022   7.3620574408970013E-016
 chl           3   6.6196779046669718E-010   8.8111203886502999E-010  0.75128673910685084     
 chl2c           4  0.77318742499999993        3.7976509103863923E-002  0.77318742499999993        4.1971569520066711E-022   1.0027074632946588E-005
 chl           4   6.8126474846655236E-010   8.8111203886502999E-010  0.77318742499999993     
 chl2c           5  0.48489647571819466        2.5710500362372445E-002  0.48489679999999996        1.4356283298694505E-021   5.2046051584237998E-016
 chl           5   6.2712043743630077E-011   1.2933078890859209E-010  0.48489647571819466     
 chl2c           6  0.29222854999999970        3.1261039902252048E-002  0.29222855000000003        3.0056412091763522E-022   3.9151295650492494E-008
 chl           6   3.7794148913113908E-011   1.2933078890859209E-010  0.29222854999999970     
 chl2c           7  0.22769315177117094        4.3064391842467263E-002  0.22770740000000000        1.2637204779526401E-022   2.2992556335610674E-019
 chl           7   2.9447734947649332E-011   1.2933078890859209E-010  0.22769315177117094     
 chl2c           8  0.49578364999999580        4.7969800906495587E-002  0.49578364999999996        1.2637204779526401E-022   3.7245230723460130E-009
 chl           8   6.4120090582480755E-011   1.2933078890859209E-010  0.49578364999999580     
 chl2c           9  0.28700202499999999        2.4803669054600401E-002  0.28700202499999999        1.4356283298694505E-021   6.4290570053296540E-006
 chl           9   3.7118198311613468E-011   1.2933078890859209E-010  0.28700202499999999     
 chl2c          10  0.39094641656770918        2.5387016219684602E-002  0.39094662499999999        1.4356283298694505E-021   5.2635860533054159E-016
 chl          10   5.0561408475688903E-011   1.2933078890859209E-010  0.39094641656770918     
 chl2c          11  0.49737565154637092        2.1820572217820047E-002  0.49737575000000001        4.1971569520066711E-022   5.2730587889545258E-016
 chl          11   6.4325985398417153E-011   1.2933078890859209E-010  0.49737565154637092     
 chl2c          12  0.30766469903301596        4.5290941298723353E-002  0.30768942500000002        1.2637204779526401E-022   2.4191231719572309E-019
 chl          12   3.9790518245264507E-011   1.2933078890859209E-010  0.30766469903301596     
 chl2c          13  0.75666275000000005        3.7935816987997487E-002  0.75666275000000005        4.1971569520066711E-022   4.3690011436509529E-006
 chl          13   6.6670465838560117E-010   8.8111203886487220E-010  0.75666275000000005     
 chl2c          14  0.39803813639072355        4.6856526101924839E-002  0.39804095000000000        1.2637204779526401E-022   3.5580305977054232E-018
 chl          14   5.1478586195118055E-011   1.2933078890859209E-010  0.39803813639072355     
 chl2c          15  0.25607259903548962        2.0954299823745293E-002  0.25607262500000000        4.1971569520066711E-022   5.2999447132907507E-016
 chl          15   3.3118071251133451E-011   1.2933078890859209E-010  0.25607259903548962     
 chl2c          16  0.71433214999999994        3.7823443882273475E-002  0.71433214999999994        4.1971569520066711E-022   7.2501713061380566E-006
 chl          16   6.2940665711334037E-010   8.8111203886502999E-010  0.71433214999999994     
 chl2c          17  0.62580848836278624        3.7542254757581245E-002  0.62580860000000005        4.1971569520066711E-022   7.3620574408970013E-016
 chl          17   5.5140739312037696E-010   8.8111203886502999E-010  0.62580848836278624     
 chl2c          18  0.47925918799915118        2.5694475239060960E-002  0.47925950000000000        1.4356283298694505E-021   5.2844212039465871E-016
 chl          18   6.1982968875621469E-011   1.2933078890859209E-010  0.47925918799915118     
 chl2c          19  0.63367130000000005        3.7570220750293731E-002  0.63367130000000005        4.1971569520066711E-022   1.1015899466351436E-005
 chl          19   5.5833541111325408E-010   8.8111203886502999E-010  0.63367130000000005     
 chl2c          20  0.50678202500000002        3.7020645196759419E-002  0.50678202500000002        4.1971569520066711E-022   1.8301752130803475E-006
 chl          20   4.4653174330781866E-010   8.8111203886487220E-010  0.50678202500000002     
 chl2c          21  0.71973185000000006        3.7838475073783531E-002  0.71973185000000006        4.1971569520066711E-022   1.3608636806533340E-005
 chl          21   6.3416439778948644E-010   8.8111203886487220E-010  0.71973185000000006     
 chl2c          22  0.64616892500000001        3.7613353106285476E-002  0.64616892500000001        4.1971569520066711E-022   5.6280317306364087E-006
 chl          22   5.6934721895797466E-010   8.8111203886502999E-010  0.64616892500000001     
 chl2c          23  0.41564179999999384        3.2286562315070731E-002  0.41564179999999995        3.0056412091763522E-022   4.2337884555150733E-009
 chl          23   5.3755281897386456E-011   1.2933078890859209E-010  0.41564179999999384     
 chl2c          24  0.57597484506109409        3.7348402796863071E-002  0.57597492500000003        4.1971569520066711E-022   8.7091166485376174E-016
 chl          24   5.0749837006665952E-010   8.8111203886487220E-010  0.57597484506109409     
 chl2c          25  0.31406487499999802        4.5426679235459781E-002  0.31406487500000002        1.2637204779526401E-022   3.1220383697746331E-009
 chl          25   4.0618258052228107E-011   1.2933078890859209E-010  0.31406487499999802     
 chl2c          26  0.49421096323229924        4.7955660680174553E-002  0.49427735000000000        1.2637204779526401E-022   2.3249980256410590E-019
 chl          26   6.3916693762108454E-011   1.2933078890859209E-010  0.49421096323229924     
 chl2c          27  0.30964558241575046        4.5333133499525620E-002  0.30964730000000001        1.2637204779526401E-022   3.5272412474205568E-018
 chl          27   4.0046707455889478E-011   1.2933078890859209E-010  0.30964558241575046     
 chl2c          28  0.28775987486816601        3.1209236063453518E-002  0.28776342500000002        3.0056412091763522E-022   3.5053266109492206E-018
 chl          28   3.7216211632937653E-011   1.2933078890859209E-010  0.28775987486816601     
 chl2c          29  0.68676286321291513        3.7743217595736761E-002  0.68676297499999994        4.1971569520066711E-022   8.8541578293779726E-016
 chl          29   6.0511502662220896E-010   8.8111203886487220E-010  0.68676286321291513     
 chl2c          30  0.38930257002054458        2.5380056985171612E-002  0.38930277499999999        1.4356283298694505E-021   5.3073344887193435E-016
 chl          30   5.0348808504899442E-011   1.2933078890859209E-010  0.38930257002054458     
 chl2c          31  0.63559375483481872        3.7576959810037038E-002  0.63559385000000002        4.1971569520066711E-022   8.9085381249324575E-016
 chl          31   5.6002930921228687E-010   8.8111203886487220E-010  0.63559375483481872     
 chl2c          32  0.24722665084937803        2.0893126428578448E-002  0.24722667500000001        4.1971569520066711E-022   5.3111370501151716E-016
 chl          32   3.1974017793579107E-011   1.2933078890859209E-010  0.24722665084937803     
 chl2c          33  0.60343137499999999        3.7458922634011876E-002  0.60343137499999999        4.1971569520066711E-022   1.2813023537569279E-005
 chl          33   5.3169064914128328E-010   8.8111203886487220E-010  0.60343137499999999     
 chl2c          34  0.38240999799861597        2.5350269098008315E-002  0.38241020000000003        1.4356283298694505E-021   5.1965652525673437E-016
 chl          34   4.9457386727694127E-011   1.2933078890859209E-010  0.38240999799861597     
 chl2c          35  0.49574611184856665        2.5740370148566064E-002  0.49574644999999995        1.4356283298694505E-021   5.2169866002096420E-016
 chl          35   6.4115235743742261E-011   1.2933078890859209E-010  0.49574611184856665     
 chl2c          36  0.69587323696590675        3.7770393924465726E-002  0.69587337500000002        4.1971569520066711E-022   7.3620574408970013E-016
 chl          36   6.1314228661463821E-010   8.8111203886502999E-010  0.69587323696590675     
 chl2c          37  0.33194055542745099        2.1353674699533250E-002  0.33194060000000003        4.1971569520066711E-022   5.1877427706830530E-016
 chl          37   4.2930133904188478E-011   1.2933078890859209E-010  0.33194055542745099     
 chl2c          38  0.38455716657853101        2.1543295686358745E-002  0.38455722500000000        4.1971569520066711E-022   5.3122025432151152E-016
 chl          38   4.9735081734054278E-011   1.2933078890859209E-010  0.38455716657853101     
 chl2c          39  0.47091087214391492        2.5670077108751441E-002  0.47091117500000002        1.4356283298694505E-021   5.2559767324947981E-016
 chl          39   6.0903274600005662E-011   1.2933078890859209E-010  0.47091087214391492     
 chl2c          40  0.66875547499999999        3.7687445774703773E-002  0.66875547499999999        4.1971569520066711E-022   7.2257766855335176E-006
 chl          40   5.8924850007940163E-010   8.8111203886502999E-010  0.66875547499999999     
 chl2c          41  0.44304987499999998        2.5582381488167241E-002  0.44304987499999998        1.4356283298694505E-021   7.3492879443133602E-006
 chl          41   5.7299989859603106E-011   1.2933078890859209E-010  0.44304987499999998     
 chl2c          42  0.76234377499999995        3.7949995630725070E-002  0.76234377499999995        4.1971569520066711E-022   9.9254225484205823E-006
 chl          42   6.7171027790619334E-010   8.8111203886487220E-010  0.76234377499999995     
 chl2c          43  0.29539925000000000        2.1185090152268007E-002  0.29539925000000000        4.1971569520066711E-022   8.1837126636884853E-006
 chl          43   3.8204218045506424E-011   1.2933078890859209E-010  0.29539925000000000     
 chl2c          44  0.62417262499999993        3.7536352708156646E-002  0.62417262500000004        4.1971569520066711E-022   8.6124673460227147E-007
 chl          44   5.4996601421738927E-010   8.8111203886487220E-010  0.62417262499999993     
 chl2c          45  0.37659358337984744        4.6544927192009838E-002  0.37662252499999999        1.2637204779526401E-022   3.0965449936189540E-019
 chl          45   4.8705145236429320E-011   1.2933078890859209E-010  0.37659358337984744     
 chl2c          46  0.51876028660062312        3.7083195475449568E-002  0.51876034999999998        4.1971569520066711E-022   8.9078669293878813E-016
 chl          46   4.5708593380880047E-010   8.8111203886487220E-010  0.51876028660062312     
 chl2c          47  0.61962273466020468        3.7519784612651236E-002  0.61962282499999999        4.1971569520066711E-022   8.9186857930530157E-016
 chl          47   5.4595705106348061E-010   8.8111203886487220E-010  0.61962273466020468     
 chl2c          48  0.71424949999999998        3.7823212136301673E-002  0.71424949999999998        4.1971569520066711E-022   7.0802108476263356E-006
 chl          48   6.2933383320321550E-010   8.8111203886487220E-010  0.71424949999999998     
 chl2c          49  0.53276113256505497        3.7152990741888416E-002  0.53276120000000005        4.1971569520066711E-022   8.8329409637611643E-016
 chl          49   4.6942224774235405E-010   8.8111203886487220E-010  0.53276113256505497     
 chl2c          50  0.38132569999999999        2.1533072915600981E-002  0.38132569999999999        4.1971569520066711E-022   2.0415857128052987E-006
 chl          50   4.9317153612121113E-011   1.2933078890859209E-010  0.38132569999999999     
 chl2c          51  0.22275918044828955        2.0700971146093840E-002  0.22275920000000002        4.1971569520066711E-022   5.3261294480184135E-016
 chl          51   2.8809620544008709E-011   1.2933078890859209E-010  0.22275918044828955     
 chl2c          52  0.63698869999999996        3.7581825176985564E-002  0.63698869999999996        4.1971569520066711E-022   5.1111333435144120E-006
 chl          52   5.6125841219098486E-010   8.8111203886502999E-010  0.63698869999999996     
 chl2c          53  0.75269794999999995        3.7925801262726190E-002  0.75269794999999995        4.1971569520066711E-022   8.9784784012536444E-006
 chl          53   6.6321122537402833E-010   8.8111203886502999E-010  0.75269794999999995     
 chl2c          54  0.51861118525255723        3.7082433371327092E-002  0.51861124999999997        4.1971569520066711E-022   8.7173886004985132E-016
 chl          54   4.5695455881600862E-010   8.8111203886487220E-010  0.51861118525255723     
 chl2c          55  0.57808280000000001        3.7357235588660491E-002  0.57808280000000001        4.1971569520066711E-022   5.6764311466507302E-006
 chl          55   5.0935571454071420E-010   8.8111203886487220E-010  0.57808280000000001     
 chl2c          56  0.61626069174324061        3.7507394187257688E-002  0.61626080000000005        4.1971569520066711E-022   7.3620574408970013E-016
 chl          56   5.4299471457426050E-010   8.8111203886502999E-010  0.61626069174324061     
 chl2c          57  0.68163451615030834        3.7727617852646313E-002  0.68163462500000005        4.1971569520066711E-022   8.9577972440263171E-016
 chl          57   6.0059637828586885E-010   8.8111203886487220E-010  0.68163451615030834     
 chl2c          58  0.69416802499999997        3.7765358178394853E-002  0.69416802499999997        4.1971569520066711E-022   1.1240392670152935E-005
 chl          58   6.1163980382266104E-010   8.8111203886502999E-010  0.69416802499999997     
 chl2c          59  0.53705127500000005        3.7173699120809672E-002  0.53705127500000005        4.1971569520066711E-022   1.3839949555155370E-005
 chl          59   4.7320234389022924E-010   8.8111203886487220E-010  0.53705127500000005     
 chl2c          60  0.64452155000000000        3.7607757740906807E-002  0.64452155000000000        4.1971569520066711E-022   1.3367251431159468E-005
 chl          60   5.6789569701284768E-010   8.8111203886487220E-010  0.64452155000000000     
 chl2c          61  0.70794128136802092        3.7805373434125003E-002  0.70794139999999994        4.1971569520066711E-022   8.8658011556124128E-016
 chl          61   6.2377558582278711E-010   8.8111203886487220E-010  0.70794128136802092     
 chl2c          62  0.76481592499999995        3.7956103087269030E-002  0.76481592499999995        4.1971569520066711E-022   7.2173502208965894E-006
 chl          62   6.7388851903307318E-010   8.8111203886487220E-010  0.76481592499999995     
 chl2c          63  0.72597904999999996        3.7855601011927406E-002  0.72597904999999996        4.1971569520066711E-022   1.0027545141980572E-005
 chl          63   6.3966888091879748E-010   8.8111203886502999E-010  0.72597904999999996     
 chl2c          64  0.48435707234051328        2.5708982294816416E-002  0.48435739999999999        1.4356283298694505E-021   5.1394999042068443E-016
 chl          64   6.2642282279254587E-011   1.2933078890859209E-010  0.48435707234051328     
 chl2c          65  0.76379975000000000        3.7953597170552002E-002  0.76379975000000000        4.1971569520066711E-022   1.1347793609039597E-005
 chl          65   6.7299315500710017E-010   8.8111203886502999E-010  0.76379975000000000     
 chl2c          66  0.35205886547911142        3.1840477731474713E-002  0.35213202499999996        3.0056412091763522E-022   2.5465786722864675E-019
 chl          66   4.5532050814677375E-011   1.2933078890859209E-010  0.35205886547911142     
 chl2c          67  0.75736746364828955        3.7937587124568600E-002  0.75736760000000003        4.1971569520066711E-022   8.8283184414178772E-016
 chl          67   6.6732559006506139E-010   8.8111203886487220E-010  0.75736746364828955     
 chl2c          68  0.72590779999999999        3.7855407263856986E-002  0.72590779999999999        4.1971569520066711E-022   1.1312296822530780E-005
 chl          68   6.3960610168602841E-010   8.8111203886502999E-010  0.72590779999999999     
 chl2c          69  0.45524209146520594        2.1732330561541505E-002  0.45524217500000003        4.1971569520066711E-022   5.2064620492653435E-016
 chl          69   5.8876818833592522E-011   1.2933078890859209E-010  0.45524209146520594     
 chl2c          70  0.48693240251446729        3.2658010878182209E-002  0.48694062500000002        3.0056412091763522E-022   4.3335988463543029E-018
 chl          70   6.2975351762352164E-011   1.2933078890859209E-010  0.48693240251446729     
 chl2c          71  0.23986107499999915        4.3481058864416305E-002  0.23986107500000001        1.2637204779526401E-022   4.3936358087840915E-009
 chl          71   3.1021422058212862E-011   1.2933078890859209E-010  0.23986107499999915     
 chl2c          72  0.62790522500000001        3.7549776402781669E-002  0.62790522500000001        4.1971569520066711E-022   3.6619003394677321E-006
 chl          72   5.5325485301375545E-010   8.8111203886502999E-010  0.62790522500000001     
 chl2c          73  0.35356337210928640        3.1852614277819484E-002  0.35362212500000001        3.0056412091763522E-022   3.1980452066722722E-019
 chl          73   4.5726629844076112E-011   1.2933078890859209E-010  0.35356337210928640     
 chl2c          74  0.64719590000000005        3.7616827685877569E-002  0.64719590000000005        4.1971569520066711E-022   1.3631413054096113E-005
 chl          74   5.7025209899398596E-010   8.8111203886487220E-010  0.64719590000000005     
 chl2c          75  0.71554197905260863        3.7826830779512356E-002  0.71554212500000003        4.1971569520066711E-022   7.3620574408970013E-016
 chl          75   6.3047265205656261E-010   8.8111203886502999E-010  0.71554197905260863     
 chl2c          76  0.55513977499999989        3.7257729557919804E-002  0.55513977500000000        4.1971569520066711E-022   7.7245456902977899E-007
 chl          76   4.8914033900532389E-010   8.8111203886502999E-010  0.55513977499999989     
 chl2c          77  0.52973029999999999        3.7138172437479272E-002  0.52973029999999999        4.1971569520066711E-022   1.3379431010254275E-005
 chl          77   4.6675174468150040E-010   8.8111203886487220E-010  0.52973029999999999     
 chl2c          78  0.45117204972400388        4.7515248899399322E-002  0.45117492500000000        1.2637204779526401E-022   4.4733062386376007E-018
 chl          78   5.8350437124311957E-011   1.2933078890859209E-010  0.45117204972400388     
 prod   1.1560419312304067E-009   1.2128916736038708E-015   10.000000000000000     
 dcdom   1.2451663770151006E-012  -6.9654686261384083E-012
 chl2c           1  0.60826437499999997        3.7477407714772232E-002  0.60826437499999997        9.8881778479639814E-023   1.1361902652686700E-005
 chl           1   9.2890635481418033E-014   1.5271424613913653E-013  0.60826437499999997     
 chl2c           2  0.48298727705776434        3.2640259920490348E-002  0.48302390000000001        6.9981520091807586E-023   2.2289711884586828E-019
 chl           2   8.4302839737924183E-015   1.7454463863204771E-014  0.48298727705776434     
 chl2c           3  0.75128686367468522        3.7922212503796585E-002  0.75128689999999998        9.8881778479639814E-023   7.6822511219702688E-016
 chl           3   1.1473220702031580E-013   1.5271424613913653E-013  0.75128686367468522     
 chl2c           4  0.77318742499999993        3.7976509103863923E-002  0.77318742499999993        9.8881778479639814E-023   8.6353388513536953E-006
 chl           4   1.1807673473313515E-013   1.5271424613913653E-013  0.77318742499999993     
 chl2c           5  0.48489672378019177        2.5710500362372445E-002  0.48489679999999996        3.4169005725845826E-022   5.2702723931838258E-016
 chl           5   8.4636123426077429E-015   1.7454463863204771E-014  0.48489672378019177     
 chl2c           6  0.29222854999999998        3.1261039902252048E-002  0.29222855000000003        6.9981520091807586E-023   5.1061606758435641E-008
 chl           6   5.1006926657717284E-015   1.7454463863204771E-014  0.29222854999999998     
 chl2c           7  0.22770392193957845        4.3064391842467263E-002  0.22770740000000000        2.9179790445638692E-023   2.1750172517212951E-019
 chl           7   3.9744498770043722E-015   1.7454463863204771E-014  0.22770392193957845     
 chl2c           8  0.49578364999999885        4.7969800906495587E-002  0.49578364999999996        2.9179790445638692E-023   3.2052545752527943E-009
 chl           8   8.6536378028927414E-015   1.7454463863204771E-014  0.49578364999999885     
 chl2c           9  0.28700202499999999        2.4803669054600401E-002  0.28700202499999999        3.4169005725845826E-022   4.3790246955040890E-006
 chl           9   5.0094664740290925E-015   1.7454463863204771E-014  0.28700202499999999     
 chl2c          10  0.39094657589130855        2.5387016219684602E-002  0.39094662499999999        3.4169005725845826E-022   5.3171494285667430E-016
 chl          10   6.8237628813384869E-015   1.7454463863204771E-014  0.39094657589130855     
 chl2c          11  0.49737572702986077        2.1820572217820047E-002  0.49737575000000001        9.8881778479639814E-023   5.3246594733287488E-016
 chl          11   8.6814266538779055E-015   1.7454463863204771E-014  0.49737572702986077     
 chl2c          12  0.30768942499999535        4.5290941298723353E-002  0.30768942500000002        2.9179790445638692E-023   2.9783449953805445E-010
 chl          12   5.3705539497526737E-015   1.7454463863204771E-014  0.30768942499999535     
 chl2c          13  0.75666275000000005        3.7935816987997487E-002  0.75666275000000005        9.8881778479639814E-023   7.0677503629162055E-006
 chl          13   1.1555318144780521E-013   1.5271424613912237E-013  0.75666275000000005     
 chl2c          14  0.39804026646209872        4.6856526101924839E-002  0.39804095000000000        2.9179790445638692E-023   3.3817720838302479E-018
 chl          14   6.9475794470631001E-015   1.7454463863204771E-014  0.39804026646209872     
 chl2c          15  0.25607261893560029        2.0954299823745293E-002  0.25607262500000000        9.8881778479639814E-023   5.3459482781732314E-016
 chl          15   4.4696102735676412E-015   1.7454463863204771E-014  0.25607261893560029     
 chl2c          16  0.71433214999999994        3.7823443882273475E-002  0.71433214999999994        9.8881778479639814E-023   9.0554262383737798E-006
 chl          16   1.0908869578019859E-013   1.5271424613913653E-013  0.71433214999999994     
 chl2c          17  0.62580857479534191        3.7542254757581245E-002  0.62580860000000005        9.8881778479639814E-023   7.6822511219702688E-016
 chl          17   9.5569884727278080E-014   1.5271424613913653E-013  0.62580857479534191     
 chl2c          18  0.47925942642702496        2.5694475239060960E-002  0.47925950000000000        3.4169005725845826E-022   5.3336611552283515E-016
 chl          18   8.3652163396707529E-015   1.7454463863204771E-014  0.47925942642702496     
 chl2c          19  0.63367130000000005        3.7570220750293731E-002  0.63367130000000005        9.8881778479639814E-023   1.0393637919983995E-005
 chl          19   9.6770634879506627E-014   1.5271424613913653E-013  0.63367130000000005     
 chl2c          20  0.50678202500000002        3.7020645196759419E-002  0.50678202500000002        9.8881778479639814E-023   4.4884331171914005E-006
 chl          20   7.7392834904732865E-014   1.5271424613912237E-013  0.50678202500000002     
 chl2c          21  0.71973185000000006        3.7838475073783531E-002  0.71973185000000006        9.8881778479639814E-023   1.3156519669435958E-005
 chl          21   1.0991330689506591E-013   1.5271424613912237E-013  0.71973185000000006     
 chl2c          22  0.64616892500000001        3.7613353106285476E-002  0.64616892500000001        9.8881778479639814E-023   3.1225931937314838E-006
 chl          22   9.8679200259911248E-014   1.5271424613913653E-013  0.64616892500000001     
 chl2c          23  0.41564179999999856        3.2286562315070731E-002  0.41564179999999995        6.9981520091807586E-023   4.4161787422099633E-009
 chl          23   7.2548047781373592E-015   1.7454463863204771E-014  0.41564179999999856     
 chl2c          24  0.57597490657573347        3.7348402796863071E-002  0.57597492500000003        9.8881778479639814E-023   8.9023200773599751E-016
 chl          24   8.7959573652764570E-014   1.5271424613912237E-013  0.57597490657573347     
 chl2c          25  0.31406487499999958        4.5426679235459781E-002  0.31406487500000002        2.9179790445638692E-023   3.3186827059597470E-009
 chl          25   5.4818340113894162E-015   1.7454463863204771E-014  0.31406487499999958     
 chl2c          26  0.49426114379949915        4.7955660680174553E-002  0.49427735000000000        2.9179790445638692E-023   2.1993692301791302E-019
 chl          26   8.6270632734346156E-015   1.7454463863204771E-014  0.49426114379949915     
 chl2c          27  0.30964688272977253        4.5333133499525620E-002  0.30964730000000001        2.9179790445638692E-023   3.3524999817024388E-018
 chl          27   5.4047203249608204E-015   1.7454463863204771E-014  0.30964688272977253     
 chl2c          28  0.28776255531520045        3.1209236063453518E-002  0.28776342500000002        6.9981520091807586E-023   3.3316653472575006E-018
 chl          28   5.0227411229326305E-015   1.7454463863204771E-014  0.28776255531520045     
 chl2c          29  0.68676294914683556        3.7743217595736761E-002  0.68676297499999994        9.8881778479639814E-023   9.0195796255729530E-016
 chl          29   1.0487848605523942E-013   1.5271424613912237E-013  0.68676294914683556     
 chl2c          30  0.38930272661865051        2.5380056985171612E-002  0.38930277499999999        3.4169005725845826E-022   5.3517930691793570E-016
 chl          30   6.7950703736123212E-015   1.7454463863204771E-014  0.38930272661865051     
 chl2c          31  0.63559382796275432        3.7576959810037038E-002  0.63559385000000002        9.8881778479639814E-023   9.0633409309072777E-016
 chl          31   9.7064232288011059E-014   1.5271424613912237E-013  0.63559382796275432     
 chl2c          32  0.24722666935669274        2.0893126428578448E-002  0.24722667500000001        9.8881778479639814E-023   5.3547995739259361E-016
 chl          32   4.3152089663068676E-015   1.7454463863204771E-014  0.24722666935669274     
 chl2c          33  0.60343137499999999        3.7458922634011876E-002  0.60343137499999999        9.8881778479639814E-023   1.1548649701659854E-005
 chl          33   9.2152567529819055E-014   1.5271424613912237E-013  0.60343137499999999     
 chl2c          34  0.38241015253686989        2.5350269098008315E-002  0.38241020000000003        3.4169005725845826E-022   5.2638663169488035E-016
 chl          34   6.6747641883774201E-015   1.7454463863204771E-014  0.38241015253686989     
 chl2c          35  0.49574637047990655        2.5740370148566064E-002  0.49574644999999995        3.4169005725845826E-022   5.2801300625325575E-016
 chl          35   8.6529871088564530E-015   1.7454463863204771E-014  0.49574637047990655     
 chl2c          36  0.69587334383564137        3.7770393924465726E-002  0.69587337500000002        9.8881778479639814E-023   7.6822511219702688E-016
 chl          36   1.0626977311218012E-013   1.5271424613913653E-013  0.69587334383564137     
 chl2c          37  0.33194058963706208        2.1353674699533250E-002  0.33194060000000003        9.8881778479639814E-023   5.2568321414059009E-016
 chl          37   5.7938450265509843E-015   1.7454463863204771E-014  0.33194058963706208     
 chl2c          38  0.38455721134798743        2.1543295686358745E-002  0.38455722500000000        9.8881778479639814E-023   5.3556418828181540E-016
 chl          38   6.7122399488082461E-015   1.7454463863204771E-014  0.38455721134798743     
 chl2c          39  0.47091110366630401        2.5670077108751441E-002  0.47091117500000002        3.4169005725845826E-022   5.3111130600504787E-016
 chl          39   8.2195008417253794E-015   1.7454463863204771E-014  0.47091110366630401     
 chl2c          40  0.66875547499999999        3.7687445774703773E-002  0.66875547499999999        9.8881778479639814E-023   9.0376754179029337E-006
 chl          40   1.0212848821604517E-013   1.5271424613913653E-013  0.66875547499999999     
 chl2c          41  0.44304987499999998        2.5582381488167241E-002  0.44304987499999998        3.4169005725845826E-022   7.6008999809889888E-006
 chl          41   7.7331980327848911E-015   1.7454463863204771E-014  0.44304987499999998     
 chl2c          42  0.76234377499999995        3.7949995630725070E-002  0.76234377499999995        9.8881778479639814E-023   1.1451241871399312E-005
 chl          42   1.1642075489797771E-013   1.5271424613912237E-013  0.76234377499999995     
 chl2c          43  0.29539925000000000        2.1185090152268007E-002  0.29539925000000000        9.8881778479639814E-023   7.7688903246416913E-006
 chl          43   5.1560355343427922E-015   1.7454463863204771E-014  0.29539925000000000     
 chl2c          44  0.62417262500000004        3.7536352708156646E-002  0.62417262500000004        9.8881778479639814E-023   3.3244917006266105E-006
 chl          44   9.5320051887552126E-014   1.5271424613912237E-013  0.62417262500000004     
 chl2c          45  0.37661546019189512        4.6544927192009838E-002  0.37662252499999999        2.9179790445638692E-023   2.9292486450780285E-019
 chl          45   6.5736209402436684E-015   1.7454463863204771E-014  0.37661546019189512     
 chl2c          46  0.51876033531894239        3.7083195475449568E-002  0.51876034999999998        9.8881778479639814E-023   9.0628014688654703E-016
 chl          46   7.9222093535110616E-014   1.5271424613912237E-013  0.51876033531894239     
 chl2c          47  0.61962280407515680        3.7519784612651236E-002  0.61962282499999999        9.8881778479639814E-023   9.0714949227941285E-016
 chl          47   9.4625229414946684E-014   1.5271424613912237E-013  0.61962280407515680     
 chl2c          48  0.71424949999999998        3.7823212136301673E-002  0.71424949999999998        9.8881778479639814E-023   9.4112061215835213E-006
 chl          48   1.0907607394774507E-013   1.5271424613912237E-013  0.71424949999999998     
 chl2c          49  0.53276118441203346        3.7152990741888416E-002  0.53276120000000005        9.8881778479639814E-023   9.0024760206099262E-016
 chl          49   8.1360222649669634E-014   1.5271424613912237E-013  0.53276118441203346     
 chl2c          50  0.38132568642485548        2.1533072915600981E-002  0.38132569999999999        9.8881778479639814E-023   5.2958289358684038E-016
 chl          50   6.6558354138143939E-015   1.7454463863204771E-014  0.38132568642485548     
 chl2c          51  0.22275919542854386        2.0700971146093840E-002  0.22275920000000002        9.8881778479639814E-023   5.3666466801234571E-016
 chl          51   3.8881423268040883E-015   1.7454463863204771E-014  0.22275919542854386     
 chl2c          52  0.63698869999999996        3.7581825176985564E-002  0.63698869999999996        9.8881778479639814E-023   7.3643388057311741E-006
 chl          52   9.7277249119648591E-014   1.5271424613913653E-013  0.63698869999999996     
 chl2c          53  0.75269794999999995        3.7925801262726190E-002  0.75269794999999995        9.8881778479639814E-023   1.0219619099097373E-005
 chl          53   1.1494770000472346E-013   1.5271424613913653E-013  0.75269794999999995     
 chl2c          54  0.51861123507412632        3.7082433371327092E-002  0.51861124999999997        9.8881778479639814E-023   8.9090289398174269E-016
 chl          54   7.9199323803624375E-014   1.5271424613912237E-013  0.51861123507412632     
 chl2c          55  0.57808280000000001        3.7357235588660491E-002  0.57808280000000001        9.8881778479639814E-023   2.5826484343965298E-006
 chl          55   8.8281479007993050E-014   1.5271424613912237E-013  0.57808280000000001     
 chl2c          56  0.61626077555855707        3.7507394187257688E-002  0.61626080000000005        9.8881778479639814E-023   7.6822511219702688E-016
 chl          56   9.4111799764544653E-014   1.5271424613913653E-013  0.61626077555855707     
 chl2c          57  0.68163459976458818        3.7727617852646313E-002  0.68163462500000005        9.8881778479639814E-023   9.1028868777987117E-016
 chl          57   1.0409531404539148E-013   1.5271424613912237E-013  0.68163459976458818     
 chl2c          58  0.69416802499999997        3.7765358178394853E-002  0.69416802499999997        9.8881778479639814E-023   1.0910499583958502E-005
 chl          58   1.0600934663176828E-013   1.5271424613913653E-013  0.69416802499999997     
 chl2c          59  0.53705127500000005        3.7173699120809672E-002  0.53705127500000005        9.8881778479639814E-023   1.3485799220862072E-005
 chl          59   8.2015380599679501E-014   1.5271424613912237E-013  0.53705127500000005     
 chl2c          60  0.64452155000000000        3.7607757740906807E-002  0.64452155000000000        9.8881778479639814E-023   1.2903058346431151E-005
 chl          60   9.8427622628668665E-014   1.5271424613912237E-013  0.64452155000000000     
 chl2c          61  0.70794137255626488        3.7805373434125003E-002  0.70794139999999994        9.8881778479639814E-023   9.0289585606572574E-016
 chl          61   1.0811273302062556E-013   1.5271424613912237E-013  0.70794137255626488     
 chl2c          62  0.76481592499999995        3.7956103087269030E-002  0.76481592499999995        9.8881778479639814E-023   9.4768008655185931E-006
 chl          62   1.1679828742157055E-013   1.5271424613912237E-013  0.76481592499999995     
 chl2c          63  0.72597904999999996        3.7855601011927406E-002  0.72597904999999996        9.8881778479639814E-023   8.6360851609177972E-006
 chl          63   1.1086734333355650E-013   1.5271424613913653E-013  0.72597904999999996     
 chl2c          64  0.48435732319198005        2.5708982294816416E-002  0.48435739999999999        3.4169005725845826E-022   5.2182824944644216E-016
 chl          64   8.4541973945330106E-015   1.7454463863204771E-014  0.48435732319198005     
 chl2c          65  0.76379975000000000        3.7953597170552002E-002  0.76379975000000000        9.8881778479639814E-023   1.1361681295369662E-005
 chl          65   1.1664310302251093E-013   1.5271424613913653E-013  0.76379975000000000     
 chl2c          66  0.35211401521143931        3.1840477731474713E-002  0.35213202499999996        6.9981520091807586E-023   2.4089822376361069E-019
 chl          66   6.1459613542360023E-015   1.7454463863204771E-014  0.35211401521143931     
 chl2c          67  0.75736756848497633        3.7937587124568600E-002  0.75736760000000003        9.8881778479639814E-023   8.9987474253651351E-016
 chl          67   1.1566081727140330E-013   1.5271424613912237E-013  0.75736756848497633     
 chl2c          68  0.72590779999999999        3.7855407263856986E-002  0.72590779999999999        9.8881778479639814E-023   1.1116764668620520E-005
 chl          68   1.1085646244351910E-013   1.5271424613913653E-013  0.72590779999999999     
 chl2c          69  0.45524215556357833        2.1732330561541505E-002  0.45524217500000003        9.8881778479639814E-023   5.2717513761638716E-016
 chl          69   7.9460077532919224E-015   1.7454463863204771E-014  0.45524215556357833     
 chl2c          70  0.48693861083925483        3.2658010878182209E-002  0.48694062500000002        6.9981520091807586E-023   4.1191676657127834E-018
 chl          70   8.4992523864929048E-015   1.7454463863204771E-014  0.48693861083925483     
 chl2c          71  0.23986107499999978        4.3481058864416305E-002  0.23986107500000001        2.9179790445638692E-023   3.9842214050361913E-009
 chl          71   4.1866464657769453E-015   1.7454463863204771E-014  0.23986107499999978     
 chl2c          72  0.62790522500000001        3.7549776402781669E-002  0.62790522500000001        9.8881778479639814E-023   6.0546652429271069E-006
 chl          72   9.5890073082699900E-014   1.5271424613913653E-013  0.62790522500000001     
 chl2c          73  0.35360766225933088        3.1852614277819484E-002  0.35362212500000001        6.9981520091807586E-023   3.0252681404034686E-019
 chl          73   6.1720321626578087E-015   1.7454463863204771E-014  0.35360766225933088     
 chl2c          74  0.64719590000000005        3.7616827685877569E-002  0.64719590000000005        9.8881778479639814E-023   1.3123797198362593E-005
 chl          74   9.8836033972830828E-014   1.5271424613912237E-013  0.64719590000000005     
 chl2c          75  0.71554209204903274        3.7826830779512356E-002  0.71554212500000003        9.8881778479639814E-023   7.6822511219702688E-016
 chl          75   1.0927347116808867E-013   1.5271424613913653E-013  0.71554209204903274     
 chl2c          76  0.55513975516635905        3.7257729557919804E-002  0.55513977500000000        9.8881778479639814E-023   7.6822511219702688E-016
 chl          76   8.4777749212095340E-014   1.5271424613913653E-013  0.55513975516635905     
 chl2c          77  0.52973029999999999        3.7138172437479272E-002  0.52973029999999999        9.8881778479639814E-023   1.3094714575981561E-005
 chl          77   8.0897363421551127E-014   1.5271424613912237E-013  0.52973029999999999     
 chl2c          78  0.45117422653071176        4.7515248899399322E-002  0.45117492500000000        2.9179790445638692E-023   4.2520082194894598E-018
 chl          78   7.8750042329896712E-015   1.7454463863204771E-014  0.45117422653071176     
 prod   1.0935514980060380E-009   2.8080681770646452E-016   10.000000000000000     
 dcdom   1.2501974689681725E-012  -4.9749913743612493E-012
 chl2c           1  0.60826437499999997        3.7477407714772232E-002  0.60826437499999997        0.0000000000000000        1.1341186231960265E-005
 chl           1   1.2379501779580865E-017   2.0352172983303298E-017  0.60826437499999997     
 chl2c           2  0.48302390000000001        3.2640259920490348E-002  0.48302390000000001        0.0000000000000000        2.1017011469595793E-019
 chl           2   1.0125757465885891E-018   2.0963263858964103E-018  0.48302390000000001     
 chl2c           3  0.75128689999999998        3.7922212503796585E-002  0.75128689999999998        0.0000000000000000        7.9600931977512387E-016
 chl           3   1.5290320948889687E-017   2.0352172983303298E-017  0.75128689999999998     
 chl2c           4  0.77318742499999993        3.7976509103863923E-002  0.77318742499999993        0.0000000000000000        6.9035528218647564E-006
 chl           4   1.5736044222114844E-017   2.0352172983303298E-017  0.77318742499999993     
 chl2c           5  0.48489679999999996        2.5710500362372445E-002  0.48489679999999996        0.0000000000000000        5.3109698787088635E-016
 chl           5   1.0165019562767345E-018   2.0963263858964103E-018  0.48489679999999996     
 chl2c           6  0.29222855000000003        3.1261039902252048E-002  0.29222855000000003        0.0000000000000000        5.4324570933796240E-008
 chl           6   6.1260642007724853E-019   2.0963263858964103E-018  0.29222855000000003     
 chl2c           7  0.22770740000000000        4.3064391842467263E-002  0.22770740000000000        0.0000000000000000        2.0508267312358337E-019
 chl           7   4.7734903088386824E-019   2.0963263858964103E-018  0.22770740000000000     
 chl2c           8  0.49578364999999996        4.7969800906495587E-002  0.49578364999999996        0.0000000000000000        2.5880057518516739E-009
 chl           8   1.0393243471910307E-018   2.0963263858964103E-018  0.49578364999999996     
 chl2c           9  0.28700202499999999        2.4803669054600401E-002  0.28700202499999999        0.0000000000000000        2.2941981497564906E-006
 chl           9   6.0164991781320114E-019   2.0963263858964103E-018  0.28700202499999999     
 chl2c          10  0.39094662499999999        2.5387016219684602E-002  0.39094662499999999        0.0000000000000000        5.3502100064284441E-016
 chl          10   8.1955172546464919E-019   2.0963263858964103E-018  0.39094662499999999     
 chl2c          11  0.49737575000000001        2.1820572217820047E-002  0.49737575000000001        0.0000000000000000        5.3564872239643831E-016
 chl          11   1.0426619084300165E-018   2.0963263858964103E-018  0.49737575000000001     
 chl2c          12  0.30768942500000002        4.5290941298723353E-002  0.30768942500000002        0.0000000000000000        9.9256369097830179E-010
 chl          12   6.4501746028879467E-019   2.0963263858964103E-018  0.30768942500000002     
 chl2c          13  0.75666275000000005        3.7935816987997487E-002  0.75666275000000005        0.0000000000000000        9.0003284197520550E-006
 chl          13   1.5399731178021016E-017   2.0352172983302025E-017  0.75666275000000005     
 chl2c          14  0.39804095000000000        4.6856526101924839E-002  0.39804095000000000        0.0000000000000000        3.2054896569069976E-018
 chl          14   8.3442374615227376E-019   2.0963263858964103E-018  0.39804095000000000     
 chl2c          15  0.25607262500000000        2.0954299823745293E-002  0.25607262500000000        0.0000000000000000        5.3742683978596913E-016
 chl          15   5.3681180049325672E-019   2.0963263858964103E-018  0.25607262500000000     
 chl2c          16  0.71433214999999994        3.7823443882273475E-002  0.71433214999999994        0.0000000000000000        1.0124430222019451E-005
 chl          16   1.4538211484334959E-017   2.0352172983303298E-017  0.71433214999999994     
 chl2c          17  0.62580860000000005        3.7542254757581245E-002  0.62580860000000005        0.0000000000000000        7.9600931977512387E-016
 chl          17   1.2736564881638860E-017   2.0352172983303298E-017  0.62580860000000005     
 chl2c          18  0.47925950000000000        2.5694475239060960E-002  0.47925950000000000        0.0000000000000000        5.3640080256246896E-016
 chl          18   1.0046843355415206E-018   2.0963263858964103E-018  0.47925950000000000     
 chl2c          19  0.63367130000000005        3.7570220750293731E-002  0.63367130000000005        0.0000000000000000        9.4067543423998928E-006
 chl          19   1.2896587912154680E-017   2.0352172983303298E-017  0.63367130000000005     
 chl2c          20  0.50678202500000002        3.7020645196759419E-002  0.50678202500000002        0.0000000000000000        6.7701823379954193E-006
 chl          20   1.0314115437628092E-017   2.0352172983302025E-017  0.50678202500000002     
 chl2c          21  0.71973185000000006        3.7838475073783531E-002  0.71973185000000006        0.0000000000000000        1.2501531993031859E-005
 chl          21   1.4648107112791988E-017   2.0352172983302025E-017  0.71973185000000006     
 chl2c          22  0.64616892500000001        3.7613353106285476E-002  0.64616892500000001        0.0000000000000000        1.0639636590511600E-006
 chl          22   1.3150941738035135E-017   2.0352172983303298E-017  0.64616892500000001     
 chl2c          23  0.41564179999999995        3.2286562315070731E-002  0.41564179999999995        0.0000000000000000        4.2068022087453446E-009
 chl          23   8.7132087242147847E-019   2.0963263858964103E-018  0.41564179999999995     
 chl2c          24  0.57597492500000003        3.7348402796863071E-002  0.57597492500000003        0.0000000000000000        9.0239191834047835E-016
 chl          24   1.1722341307644411E-017   2.0352172983302025E-017  0.57597492500000003     
 chl2c          25  0.31406487500000002        4.5426679235459781E-002  0.31406487500000002        0.0000000000000000        3.1886959085512632E-009
 chl          25   6.5838248434575789E-019   2.0963263858964103E-018  0.31406487500000002     
 chl2c          26  0.49427735000000000        4.7955660680174553E-002  0.49427735000000000        0.0000000000000000        2.0737887683101895E-019
 chl          26   1.0361666507559550E-018   2.0963263858964103E-018  0.49427735000000000     
 chl2c          27  0.30964730000000001        4.5333133499525620E-002  0.30964730000000001        0.0000000000000000        3.1777358427396462E-018
 chl          27   6.4912180531158158E-019   2.0963263858964103E-018  0.30964730000000001     
 chl2c          28  0.28776342500000002        3.1209236063453518E-002  0.28776342500000002        0.0000000000000000        3.1579819416051061E-018
 chl          28   6.0324606072342279E-019   2.0963263858964103E-018  0.28776342500000002     
 chl2c          29  0.68676297499999994        3.7743217595736761E-002  0.68676297499999994        0.0000000000000000        9.1231122984790525E-016
 chl          29   1.3977118865727123E-017   2.0352172983302025E-017  0.68676297499999994     
 chl2c          30  0.38930277499999999        2.5380056985171612E-002  0.38930277499999999        0.0000000000000000        5.3791470253469463E-016
 chl          30   8.1610567933519338E-019   2.0963263858964103E-018  0.38930277499999999     
 chl2c          31  0.63559385000000002        3.7576959810037038E-002  0.63559385000000002        0.0000000000000000        9.1600245907249131E-016
 chl          31   1.2935715982322921E-017   2.0352172983302025E-017  0.63559385000000002     
 chl2c          32  0.24722667500000001        2.0893126428578448E-002  0.24722667500000001        0.0000000000000000        5.3816560500384395E-016
 chl          32   5.1826780209993640E-019   2.0963263858964103E-018  0.24722667500000001     
 chl2c          33  0.60343137499999999        3.7458922634011876E-002  0.60343137499999999        0.0000000000000000        9.8841118185687024E-006
 chl          33   1.2281139727551792E-017   2.0352172983302025E-017  0.60343137499999999     
 chl2c          34  0.38241020000000003        2.5350269098008315E-002  0.38241020000000003        0.0000000000000000        5.3055992982816608E-016
 chl          34   8.0165659249592349E-019   2.0963263858964103E-018  0.38241020000000003     
 chl2c          35  0.49574644999999995        2.5740370148566064E-002  0.49574644999999995        0.0000000000000000        5.3192302240796135E-016
 chl          35   1.0392463638494753E-018   2.0963263858964103E-018  0.49574644999999995     
 chl2c          36  0.69587337500000002        3.7770393924465726E-002  0.69587337500000002        0.0000000000000000        7.9600931977512387E-016
 chl          36   1.4162535302475086E-017   2.0352172983303298E-017  0.69587337500000002     
 chl2c          37  0.33194060000000003        2.1353674699533250E-002  0.33194060000000003        0.0000000000000000        5.2996998215618376E-016
 chl          37   6.9585583833028602E-019   2.0963263858964103E-018  0.33194060000000003     
 chl2c          38  0.38455722500000000        2.1543295686358745E-002  0.38455722500000000        0.0000000000000000        5.3823589251506645E-016
 chl          38   8.0615745765460271E-019   2.0963263858964103E-018  0.38455722500000000     
 chl2c          39  0.47091117500000002        2.5670077108751441E-002  0.47091117500000002        0.0000000000000000        5.3451627471563412E-016
 chl          39   9.8718352156598208E-019   2.0963263858964103E-018  0.47091117500000002     
 chl2c          40  0.66875547499999999        3.7687445774703773E-002  0.66875547499999999        0.0000000000000000        1.0112752929631642E-005
 chl          40   1.3610627110731163E-017   2.0352172983303298E-017  0.66875547499999999     
 chl2c          41  0.44304987499999998        2.5582381488167241E-002  0.44304987499999998        0.0000000000000000        7.4995164420533962E-006
 chl          41   9.2877714323060635E-019   2.0963263858964103E-018  0.44304987499999998     
 chl2c          42  0.76234377499999995        3.7949995630725070E-002  0.76234377499999995        0.0000000000000000        1.2108629863107981E-005
 chl          42   1.5515352381543478E-017   2.0352172983302025E-017  0.76234377499999995     
 chl2c          43  0.29539925000000000        2.1185090152268007E-002  0.29539925000000000        0.0000000000000000        7.1250915403427798E-006
 chl          43   6.1925324214901019E-019   2.0963263858964103E-018  0.29539925000000000     
 chl2c          44  0.62417262500000004        3.7536352708156646E-002  0.62417262500000004        0.0000000000000000        5.6263220066187612E-006
 chl          44   1.2703269235441707E-017   2.0352172983302025E-017  0.62417262500000004     
 chl2c          45  0.37662252499999999        4.6544927192009838E-002  0.37662252499999999        0.0000000000000000        2.7620141304635545E-019
 chl          45   7.8952373668043045E-019   2.0963263858964103E-018  0.37662252499999999     
 chl2c          46  0.51876034999999998        3.7083195475449568E-002  0.51876034999999998        0.0000000000000000        9.1595699082466331E-016
 chl          46   1.0557900380078302E-017   2.0352172983302025E-017  0.51876034999999998     
 chl2c          47  0.61962282499999999        3.7519784612651236E-002  0.61962282499999999        0.0000000000000000        9.1668960784549246E-016
 chl          47   1.2610670918802278E-017   2.0352172983302025E-017  0.61962282499999999     
 chl2c          48  0.71424949999999998        3.7823212136301673E-002  0.71424949999999998        0.0000000000000000        1.0789041445967333E-005
 chl          48   1.4536529377236979E-017   2.0352172983302025E-017  0.71424949999999998     
 chl2c          49  0.53276120000000005        3.7152990741888416E-002  0.53276120000000005        0.0000000000000000        9.1086698943821990E-016
 chl          49   1.0842848101191567E-017   2.0352172983302025E-017  0.53276120000000005     
 chl2c          50  0.38132569999999999        2.1533072915600981E-002  0.38132569999999999        0.0000000000000000        5.3323756604275254E-016
 chl          50   7.9938312653041877E-019   2.0963263858964103E-018  0.38132569999999999     
 chl2c          51  0.22275920000000002        2.0700971146093840E-002  0.22275920000000002        0.0000000000000000        5.3915397652781923E-016
 chl          51   4.6697598866117572E-019   2.0963263858964103E-018  0.22275920000000002     
 chl2c          52  0.63698869999999996        3.7581825176985564E-002  0.63698869999999996        0.0000000000000000        8.9257156749306324E-006
 chl          52   1.2964104210809489E-017   2.0352172983303298E-017  0.63698869999999996     
 chl2c          53  0.75269794999999995        3.7925801262726190E-002  0.75269794999999995        0.0000000000000000        1.0837506439293157E-005
 chl          53   1.5319038882577775E-017   2.0352172983303298E-017  0.75269794999999995     
 chl2c          54  0.51861124999999997        3.7082433371327092E-002  0.51861124999999997        0.0000000000000000        9.0296057118371111E-016
 chl          54   1.0554865871086491E-017   2.0352172983302025E-017  0.51861124999999997     
 chl2c          55  0.57808280000000001        3.7357235588660491E-002  0.57808280000000001        0.0000000000000000        3.2929672306350110E-007
 chl          55   1.1765241144271587E-017   2.0352172983302025E-017  0.57808280000000001     
 chl2c          56  0.61626080000000005        3.7507394187257688E-002  0.61626080000000005        0.0000000000000000        7.9600931977512387E-016
 chl          56   1.2542246404428878E-017   2.0352172983303298E-017  0.61626080000000005     
 chl2c          57  0.68163462500000005        3.7727617852646313E-002  0.68163462500000005        0.0000000000000000        9.1933320814604346E-016
 chl          57   1.3872745799408208E-017   2.0352172983302025E-017  0.68163462500000005     
 chl2c          58  0.69416802499999997        3.7765358178394853E-002  0.69416802499999997        0.0000000000000000        1.0286847913050754E-005
 chl          58   1.4127827724278006E-017   2.0352172983303298E-017  0.69416802499999997     
 chl2c          59  0.53705127500000005        3.7173699120809672E-002  0.53705127500000005        0.0000000000000000        1.3117745704338138E-005
 chl          59   1.0930160449702907E-017   2.0352172983302025E-017  0.53705127500000005     
 chl2c          60  0.64452155000000000        3.7607757740906807E-002  0.64452155000000000        0.0000000000000000        1.2182650359984294E-005
 chl          60   1.3117414077065945E-017   2.0352172983302025E-017  0.64452155000000000     
 chl2c          61  0.70794139999999994        3.7805373434125003E-002  0.70794139999999994        0.0000000000000000        9.1310281926604408E-016
 chl          61   1.4408145834841010E-017   2.0352172983302025E-017  0.70794139999999994     
 chl2c          62  0.76481592499999995        3.7956103087269030E-002  0.76481592499999995        0.0000000000000000        1.0792501247412435E-005
 chl          62   1.5565666005984146E-017   2.0352172983302025E-017  0.76481592499999995     
 chl2c          63  0.72597904999999996        3.7855601011927406E-002  0.72597904999999996        0.0000000000000000        6.9045192422182057E-006
 chl          63   1.4775251207854192E-017   2.0352172983303298E-017  0.72597904999999996     
 chl2c          64  0.48435739999999999        2.5708982294816416E-002  0.48435739999999999        0.0000000000000000        5.2673247234089674E-016
 chl          64   1.0153711978241820E-018   2.0963263858964103E-018  0.48435739999999999     
 chl2c          65  0.76379975000000000        3.7953597170552002E-002  0.76379975000000000        0.0000000000000000        1.1341976381600938E-005
 chl          65   1.5544984636603814E-017   2.0352172983303298E-017  0.76379975000000000     
 chl2c          66  0.35213202499999996        3.1840477731474713E-002  0.35213202499999996        0.0000000000000000        2.2714381432018683E-019
 chl          66   7.3818365532663435E-019   2.0963263858964103E-018  0.35213202499999996     
 chl2c          67  0.75736760000000003        3.7937587124568600E-002  0.75736760000000003        0.0000000000000000        9.1055202691745758E-016
 chl          67   1.5414076407148297E-017   2.0352172983302025E-017  0.75736760000000003     
 chl2c          68  0.72590779999999999        3.7855407263856986E-002  0.72590779999999999        0.0000000000000000        1.0685599339941895E-005
 chl          68   1.4773801115529134E-017   2.0352172983303298E-017  0.72590779999999999     
 chl2c          69  0.45524217500000003        2.1732330561541505E-002  0.45524217500000003        0.0000000000000000        5.3122095098122997E-016
 chl          69   9.5433618342537122E-019   2.0963263858964103E-018  0.45524217500000003     
 chl2c          70  0.48694062500000002        3.2658010878182209E-002  0.48694062500000002        0.0000000000000000        3.9046816178719110E-018
 chl          70   1.0207864805523893E-018   2.0963263858964103E-018  0.48694062500000002     
 chl2c          71  0.23986107500000001        4.3481058864416305E-002  0.23986107500000001        0.0000000000000000        3.6159175782664685E-009
 chl          71   5.0282710047197781E-019   2.0963263858964103E-018  0.23986107500000001     
 chl2c          72  0.62790522500000001        3.7549776402781669E-002  0.62790522500000001        0.0000000000000000        7.8885310507267032E-006
 chl          72   1.2779235756319979E-017   2.0352172983303298E-017  0.62790522500000001     
 chl2c          73  0.35362212500000001        3.1852614277819484E-002  0.35362212500000001        0.0000000000000000        2.8525545899550491E-019
 chl          73   7.4130739127425865E-019   2.0963263858964103E-018  0.35362212500000001     
 chl2c          74  0.64719590000000005        3.7616827685877569E-002  0.64719590000000005        0.0000000000000000        1.2388484865836018E-005
 chl          74   1.3171842910883840E-017   2.0352172983302025E-017  0.64719590000000005     
 chl2c          75  0.71554212500000003        3.7826830779512356E-002  0.71554212500000003        0.0000000000000000        7.9600931977512387E-016
 chl          75   1.4562837104840431E-017   2.0352172983303298E-017  0.71554212500000003     
 chl2c          76  0.55513977500000000        3.7257729557919804E-002  0.55513977500000000        0.0000000000000000        7.9600931977512387E-016
 chl          76   1.1298300730712072E-017   2.0352172983303298E-017  0.55513977500000000     
 chl2c          77  0.52973029999999999        3.7138172437479272E-002  0.52973029999999999        0.0000000000000000        1.2693545166388773E-005
 chl          77   1.0781162700096476E-017   2.0352172983302025E-017  0.52973029999999999     
 chl2c          78  0.45117492500000000        4.7515248899399322E-002  0.45117492500000000        0.0000000000000000        4.0306487850442325E-018
 chl          78   9.4580989993233390E-019   2.0963263858964103E-018  0.45117492500000000     
 prod   1.0310879551910087E-009   0.0000000000000000        10.000000000000000     
 dcdom   1.2552363373807526E-012  -2.9852534033476944E-012
 chl2c           1  0.60826437499999997        3.7477407714772232E-002  0.60826437499999997        0.0000000000000000        1.1192007550234628E-005
 chl           1   3.9446614392613700E-022   6.4851100958548991E-022  0.60826437499999997     
 chl2c           2  0.48302390000000001        3.2640259920490348E-002  0.48302390000000001        0.0000000000000000        1.9744085719857821E-019
 chl           2   2.6052859748422128E-023   5.3936999283932176E-023  0.48302390000000001     
 chl2c           3  0.75128689999999998        3.7922212503796585E-002  0.75128689999999998        0.0000000000000000        8.1690719543223711E-016
 chl           3   4.8721782600735295E-022   6.4851100958548991E-022  0.75128689999999998     
 chl2c           4  0.77318742499999993        3.7976509103863923E-002  0.77318742499999993        0.0000000000000000        4.7551561499759631E-006
 chl           4   5.0142055758555517E-022   6.4851100958548991E-022  0.77318742499999993     
 chl2c           5  0.48489679999999996        2.5710500362372445E-002  0.48489679999999996        0.0000000000000000        5.3399191093326049E-016
 chl           5   2.6153878354381001E-023   5.3936999283932176E-023  0.48489679999999996     
 chl2c           6  0.29222855000000003        3.1261039902252048E-002  0.29222855000000003        0.0000000000000000        5.2964871337149130E-008
 chl           6   1.5761931092094541E-023   5.3936999283932176E-023  0.29222855000000003     
 chl2c           7  0.22770740000000000        4.3064391842467263E-002  0.22770740000000000        0.0000000000000000        1.9266143614395368E-019
 chl           7   1.2281853870746058E-023   5.3936999283932176E-023  0.22770740000000000     
 chl2c           8  0.49578364999999996        4.7969800906495587E-002  0.49578364999999996        0.0000000000000000        1.8361255988833277E-009
 chl           8   2.6741082375035281E-023   5.3936999283932176E-023  0.49578364999999996     
 chl2c           9  0.28700202499999999        2.4803669054600401E-002  0.28700202499999999        0.0000000000000000        4.2574270098041184E-007
 chl           9   1.5480028016912083E-023   5.3936999283932176E-023  0.28700202499999999     
 chl2c          10  0.39094662499999999        2.5387016219684602E-002  0.39094662499999999        0.0000000000000000        5.3736622568119843E-016
 chl          10   2.1086487832680702E-023   5.3936999283932176E-023  0.39094662499999999     
 chl2c          11  0.49737575000000001        2.1820572217820047E-002  0.49737575000000001        0.0000000000000000        5.3790545819985455E-016
 chl          11   2.6826955471595231E-023   5.3936999283932176E-023  0.49737575000000001     
 chl2c          12  0.30768942500000002        4.5290941298723353E-002  0.30768942500000002        0.0000000000000000        1.5903656704493145E-009
 chl          12   1.6595844295898503E-023   5.3936999283932176E-023  0.30768942500000002     
 chl2c          13  0.75666275000000005        3.7935816987997487E-002  0.75666275000000005        0.0000000000000000        1.0344019059913503E-005
 chl          13   4.9070412391821336E-022   6.4851100958546377E-022  0.75666275000000005     
 chl2c          14  0.39804095000000000        4.6856526101924839E-002  0.39804095000000000        0.0000000000000000        3.0290807934112487E-018
 chl          14   2.1469134435125684E-023   5.3936999283932176E-023  0.39804095000000000     
 chl2c          15  0.25607262500000000        2.0954299823745293E-002  0.25607262500000000        0.0000000000000000        5.3943216324948617E-016
 chl          15   1.3811788991259633E-023   5.3936999283932176E-023  0.25607262500000000     
 chl2c          16  0.71433214999999994        3.7823443882273475E-002  0.71433214999999994        0.0000000000000000        1.0670158811329323E-005
 chl          16   4.6325226377587358E-022   6.4851100958548991E-022  0.71433214999999994     
 chl2c          17  0.62580860000000005        3.7542254757581245E-002  0.62580860000000005        0.0000000000000000        8.1690719543223711E-016
 chl          17   4.0584376699328205E-022   6.4851100958548991E-022  0.62580860000000005     
 chl2c          18  0.47925950000000000        2.5694475239060960E-002  0.47925950000000000        0.0000000000000000        5.3855133172732011E-016
 chl          18   2.5849819308317693E-023   5.3936999283932176E-023  0.47925950000000000     
 chl2c          19  0.63367130000000005        3.7570220750293731E-002  0.63367130000000005        0.0000000000000000        7.8628830851397258E-006
 chl          19   4.1094281450834989E-022   6.4851100958548991E-022  0.63367130000000005     
 chl2c          20  0.50678202500000002        3.7020645196759419E-002  0.50678202500000002        0.0000000000000000        8.6644134654639678E-006
 chl          20   3.2865372267251576E-022   6.4851100958546377E-022  0.50678202500000002     
 chl2c          21  0.71973185000000006        3.7838475073783531E-002  0.71973185000000006        0.0000000000000000        1.1498672462415627E-005
 chl          21   4.6675402867431358E-022   6.4851100958546377E-022  0.71973185000000006     
 chl2c          22  0.64616892500000001        3.7613353106285476E-002  0.64616892500000001        0.0000000000000000        8.1690719543223711E-016
 chl          22   4.1904766191452070E-022   6.4851100958548991E-022  0.64616892500000001     
 chl2c          23  0.41564179999999995        3.2286562315070731E-002  0.41564179999999995        0.0000000000000000        3.8600338031620264E-009
 chl          23   2.2418471468972278E-023   5.3936999283932176E-023  0.41564179999999995     
 chl2c          24  0.57597492500000003        3.7348402796863071E-002  0.57597492500000003        0.0000000000000000        9.1113050272581339E-016
 chl          24   3.7352608010766182E-022   6.4851100958546377E-022  0.57597492500000003     
 chl2c          25  0.31406487500000002        4.5426679235459781E-002  0.31406487500000002        0.0000000000000000        2.9371462917254625E-009
 chl          25   1.6939716937983249E-023   5.3936999283932176E-023  0.31406487500000002     
 chl2c          26  0.49427735000000000        4.7955660680174553E-002  0.49427735000000000        0.0000000000000000        1.9481861491865921E-019
 chl          26   2.6659837073013894E-023   5.3936999283932176E-023  0.49427735000000000     
 chl2c          27  0.30964730000000001        4.5333133499525620E-002  0.30964730000000001        0.0000000000000000        3.0028471911304472E-018
 chl          27   1.6701446198371534E-023   5.3936999283932176E-023  0.30964730000000001     
 chl2c          28  0.28776342500000002        3.1209236063453518E-002  0.28776342500000002        0.0000000000000000        2.9841753838986150E-018
 chl          28   1.5521095648166873E-023   5.3936999283932176E-023  0.28776342500000002     
 chl2c          29  0.68676297499999994        3.7743217595736761E-002  0.68676297499999994        0.0000000000000000        9.1972392700228415E-016
 chl          29   4.4537335026316658E-022   6.4851100958546377E-022  0.68676297499999994     
 chl2c          30  0.38930277499999999        2.5380056985171612E-002  0.38930277499999999        0.0000000000000000        5.3985086473660371E-016
 chl          30   2.0997823496407809E-023   5.3936999283932176E-023  0.38930277499999999     
 chl2c          31  0.63559385000000002        3.7576959810037038E-002  0.63559385000000002        0.0000000000000000        9.2291518067806351E-016
 chl          31   4.1218960934981184E-022   6.4851100958546377E-022  0.63559385000000002     
 chl2c          32  0.24722667500000001        2.0893126428578448E-002  0.24722667500000001        0.0000000000000000        5.4006617035793638E-016
 chl          32   1.3334664992443934E-023   5.3936999283932176E-023  0.24722667500000001     
 chl2c          33  0.60343137499999999        3.7458922634011876E-002  0.60343137499999999        0.0000000000000000        7.7240821750008391E-006
 chl          33   3.9133189021679456E-022   6.4851100958546377E-022  0.60343137499999999     
 chl2c          34  0.38241020000000003        2.5350269098008315E-002  0.38241020000000003        0.0000000000000000        5.3352959850494883E-016
 chl          34   2.0626058683568361E-023   5.3936999283932176E-023  0.38241020000000003     
 chl2c          35  0.49574644999999995        2.5740370148566064E-002  0.49574644999999995        0.0000000000000000        5.3470274612774558E-016
 chl          35   2.6739075918661917E-023   5.3936999283932176E-023  0.49574644999999995     
 chl2c          36  0.69587337500000002        3.7770393924465726E-002  0.69587337500000002        0.0000000000000000        8.1690719543223711E-016
 chl          36   4.5128154496491219E-022   6.4851100958548991E-022  0.69587337500000002     
 chl2c          37  0.33194060000000003        2.1353674699533250E-002  0.33194060000000003        0.0000000000000000        5.3302161697989102E-016
 chl          37   1.7903879904508018E-023   5.3936999283932176E-023  0.33194060000000003     
 chl2c          38  0.38455722500000000        2.1543295686358745E-002  0.38455722500000000        0.0000000000000000        5.4012648251718564E-016
 chl          38   2.0741862769455946E-023   5.3936999283932176E-023  0.38455722500000000     
 chl2c          39  0.47091117500000002        2.5670077108751441E-002  0.47091117500000002        0.0000000000000000        5.3693254413471126E-016
 chl          39   2.5399535708770661E-023   5.3936999283932176E-023  0.47091117500000002     
 chl2c          40  0.66875547499999999        3.7687445774703773E-002  0.66875547499999999        0.0000000000000000        1.0663597339984005E-005
 chl          40   4.3369528825807386E-022   6.4851100958548991E-022  0.66875547499999999     
 chl2c          41  0.44304987499999998        2.5582381488167241E-002  0.44304987499999998        0.0000000000000000        7.2846051115267606E-006
 chl          41   2.3896780790621238E-023   5.3936999283932176E-023  0.44304987499999998     
 chl2c          42  0.76234377499999995        3.7949995630725070E-002  0.76234377499999995        0.0000000000000000        1.2277964177640448E-005
 chl          42   4.9438833117644361E-022   6.4851100958546377E-022  0.76234377499999995     
 chl2c          43  0.29539925000000000        2.1185090152268007E-002  0.29539925000000000        0.0000000000000000        6.0499728098601463E-006
 chl          43   1.5932949135724101E-023   5.3936999283932176E-023  0.29539925000000000     
 chl2c          44  0.62417262500000004        3.7536352708156646E-002  0.62417262500000004        0.0000000000000000        7.6859664573360285E-006
 chl          44   4.0478281919435911E-022   6.4851100958546377E-022  0.62417262500000004     
 chl2c          45  0.37662252499999999        4.6544927192009838E-002  0.37662252499999999        0.0000000000000000        2.5947475784012126E-019
 chl          45   2.0313888861237727E-023   5.3936999283932176E-023  0.37662252499999999     
 chl2c          46  0.51876034999999998        3.7083195475449568E-002  0.51876034999999998        0.0000000000000000        9.2287589256603345E-016
 chl          46   3.3642179831140853E-022   6.4851100958546377E-022  0.51876034999999998     
 chl2c          47  0.61962282499999999        3.7519784612651236E-002  0.61962282499999999        0.0000000000000000        9.2350886585106426E-016
 chl          47   4.0183222380294714E-022   6.4851100958546377E-022  0.61962282499999999     
 chl2c          48  0.71424949999999998        3.7823212136301673E-002  0.71424949999999998        0.0000000000000000        1.1546399437125446E-005
 chl          48   4.6319866434091270E-022   6.4851100958546377E-022  0.71424949999999998     
 chl2c          49  0.53276120000000005        3.7152990741888416E-002  0.53276120000000005        0.0000000000000000        9.1847434303135059E-016
 chl          49   3.4550150367996322E-022   6.4851100958546377E-022  0.53276120000000005     
 chl2c          50  0.38132569999999999        2.1533072915600981E-002  0.38132569999999999        0.0000000000000000        5.3583338585052454E-016
 chl          50   2.0567564007844935E-023   5.3936999283932176E-023  0.38132569999999999     
 chl2c          51  0.22275920000000002        2.0700971146093840E-002  0.22275920000000002        0.0000000000000000        5.4091414549953985E-016
 chl          51   1.2014962810889306E-023   5.3936999283932176E-023  0.22275920000000002     
 chl2c          52  0.63698869999999996        3.7581825176985564E-002  0.63698869999999996        0.0000000000000000        9.9354519427041660E-006
 chl          52   4.1309418493154875E-022   6.4851100958548991E-022  0.63698869999999996     
 chl2c          53  0.75269794999999995        3.7925801262726190E-002  0.75269794999999995        0.0000000000000000        1.1037388564697836E-005
 chl          53   4.8813290746742857E-022   6.4851100958548991E-022  0.75269794999999995     
 chl2c          54  0.51861124999999997        3.7082433371327092E-002  0.51861124999999997        0.0000000000000000        9.1162384748267159E-016
 chl          54   3.3632510531987932E-022   6.4851100958546377E-022  0.51861124999999997     
 chl2c          55  0.57808280000000001        3.7357235588660491E-002  0.57808280000000001        0.0000000000000000        9.2509373863303868E-016
 chl          55   3.7489306025199174E-022   6.4851100958546377E-022  0.57808280000000001     
 chl2c          56  0.61626080000000005        3.7507394187257688E-002  0.61626080000000005        0.0000000000000000        8.1690719543223711E-016
 chl          56   3.9965191357596171E-022   6.4851100958548991E-022  0.61626080000000005     
 chl2c          57  0.68163462500000005        3.7727617852646313E-002  0.68163462500000005        0.0000000000000000        9.2579176086035111E-016
 chl          57   4.4204755882715900E-022   6.4851100958546377E-022  0.68163462500000005     
 chl2c          58  0.69416802499999997        3.7765358178394853E-002  0.69416802499999997        0.0000000000000000        9.1535247135767488E-006
 chl          58   4.5017560671471556E-022   6.4851100958548991E-022  0.69416802499999997     
 chl2c          59  0.53705127500000005        3.7173699120809672E-002  0.53705127500000005        0.0000000000000000        1.2712197602887691E-005
 chl          59   3.4828366454941059E-022   6.4851100958546377E-022  0.53705127500000005     
 chl2c          60  0.64452155000000000        3.7607757740906807E-002  0.64452155000000000        0.0000000000000000        1.1065554335145840E-005
 chl          60   4.1797932109008796E-022   6.4851100958546377E-022  0.64452155000000000     
 chl2c          61  0.70794139999999994        3.7805373434125003E-002  0.70794139999999994        0.0000000000000000        9.2040859413882654E-016
 chl          61   4.5910779204134663E-022   6.4851100958546377E-022  0.70794139999999994     
 chl2c          62  0.76481592499999995        3.7956103087269030E-002  0.76481592499999995        0.0000000000000000        1.1499449211590102E-005
 chl          62   4.9599154766879034E-022   6.4851100958546377E-022  0.76481592499999995     
 chl2c          63  0.72597904999999996        3.7855601011927406E-002  0.72597904999999996        0.0000000000000000        4.7562414408537481E-006
 chl          63   4.7080540665341482E-022   6.4851100958548991E-022  0.72597904999999996     
 chl2c          64  0.48435739999999999        2.5708982294816416E-002  0.48435739999999999        0.0000000000000000        5.3023124954689990E-016
 chl          64   2.6124784736967251E-023   5.3936999283932176E-023  0.48435739999999999     
 chl2c          65  0.76379975000000000        3.7953597170552002E-002  0.76379975000000000        0.0000000000000000        1.1204643999625948E-005
 chl          65   4.9533254699364479E-022   6.4851100958548991E-022  0.76379975000000000     
 chl2c          66  0.35213202499999996        3.1840477731474713E-002  0.35213202499999996        0.0000000000000000        2.1338691828906952E-019
 chl          66   1.8992944780274584E-023   5.3936999283932176E-023  0.35213202499999996     
 chl2c          67  0.75736760000000003        3.7937587124568600E-002  0.75736760000000003        0.0000000000000000        9.1820175909896356E-016
 chl          67   4.9116122690331974E-022   6.4851100958546377E-022  0.75736760000000003     
 chl2c          68  0.72590779999999999        3.7855407263856986E-002  0.72590779999999999        0.0000000000000000        9.8026064157990325E-006
 chl          68   4.7075920024398185E-022   6.4851100958548991E-022  0.72590779999999999     
 chl2c          69  0.45524217500000003        2.1732330561541505E-002  0.45524217500000003        0.0000000000000000        5.3409860416210547E-016
 chl          69   2.4554396866990729E-023   5.3936999283932176E-023  0.45524217500000003     
 chl2c          70  0.48694062500000002        3.2658010878182209E-002  0.48694062500000002        0.0000000000000000        3.6900159212084822E-018
 chl          70   2.6264116141942487E-023   5.3936999283932176E-023  0.48694062500000002     
 chl2c          71  0.23986107500000001        4.3481058864416305E-002  0.23986107500000001        0.0000000000000000        3.2395491531898564E-009
 chl          71   1.2937386630518202E-023   5.3936999283932176E-023  0.23986107500000001     
 chl2c          72  0.62790522500000001        3.7549776402781669E-002  0.62790522500000001        0.0000000000000000        9.2212244838347602E-006
 chl          72   4.0720345138875422E-022   6.4851100958548991E-022  0.62790522500000001     
 chl2c          73  0.35362212500000001        3.1852614277819484E-002  0.35362212500000001        0.0000000000000000        2.6798076085742062E-019
 chl          73   1.9073316302907575E-023   5.3936999283932176E-023  0.35362212500000001     
 chl2c          74  0.64719590000000005        3.7616827685877569E-002  0.64719590000000005        0.0000000000000000        1.1274383603076064E-005
 chl          74   4.1971366650857286E-022   6.4851100958546377E-022  0.64719590000000005     
 chl2c          75  0.71554212500000003        3.7826830779512356E-002  0.71554212500000003        0.0000000000000000        8.1690719543223711E-016
 chl          75   4.6403694588469681E-022   6.4851100958548991E-022  0.71554212500000003     
 chl2c          76  0.55513977500000000        3.7257729557919804E-002  0.55513977500000000        0.0000000000000000        8.1690719543223711E-016
 chl          76   3.6001425594631169E-022   6.4851100958548991E-022  0.55513977500000000     
 chl2c          77  0.52973029999999999        3.7138172437479272E-002  0.52973029999999999        0.0000000000000000        1.2072735004244820E-005
 chl          77   3.4353593166101059E-022   6.4851100958546377E-022  0.52973029999999999     
 chl2c          78  0.45117492500000000        4.7515248899399322E-002  0.45117492500000000        0.0000000000000000        3.8090991465343572E-018
 chl          78   2.4335021606653154E-023   5.3936999283932176E-023  0.45117492500000000     
 prod   9.6861623965277513E-010   0.0000000000000000        10.000000000000000     
 dcdom   1.2603386472656881E-012  -9.9526211074578615E-013
 chl2c           1  0.60826437499999997        3.7477407714772232E-002  0.60826437499999997        0.0000000000000000        1.0666560960542043E-005
 chl           1   3.6392711047351652E-026   5.9830416744941958E-026  0.60826437499999997     
 chl2c           2  0.48302390000000001        3.2640259920490348E-002  0.48302390000000001        0.0000000000000000        1.8903217745366724E-019
 chl           2   2.2592608998359563E-026   4.6773273534414263E-026  0.48302390000000001     
 chl2c           3  0.75128689999999998        3.7922212503796585E-002  0.75128689999999998        0.0000000000000000        8.5758744794889702E-016
 chl           3   4.4949808322015534E-026   5.9830416744941958E-026  0.75128689999999998     
 chl2c           4  0.77318742499999993        3.7976509103863923E-002  0.77318742499999993        0.0000000000000000        7.5630686099935358E-007
 chl           4   4.6260125859698551E-026   5.9830416744941958E-026  0.77318742499999993     
 chl2c           5  0.48489679999999996        2.5710500362372445E-002  0.48489679999999996        0.0000000000000000        5.3790862125503998E-016
 chl           5   2.2680210662362164E-026   4.6773273534414263E-026  0.48489679999999996     
 chl2c           6  0.29222855000000003        3.1261039902252048E-002  0.29222855000000003        0.0000000000000000        4.7597299079629956E-008
 chl           6   1.3668485903715256E-026   4.6773273534414263E-026  0.29222855000000003     
 chl2c           7  0.22770740000000000        4.3064391842467263E-002  0.22770740000000000        0.0000000000000000        1.8445623589432749E-019
 chl           7   1.0650620506010283E-026   4.6773273534414263E-026  0.22770740000000000     
 chl2c           8  0.49578364999999996        4.7969800906495587E-002  0.49578364999999996        0.0000000000000000        4.4867891093058936E-010
 chl           8   2.3189424275340302E-026   4.6773273534414263E-026  0.49578364999999996     
 chl2c           9  0.28700202499999999        2.4803669054600401E-002  0.28700202499999999        0.0000000000000000        5.4052337093848321E-016
 chl           9   1.3424024220255801E-026   4.6773273534414263E-026  0.28700202499999999     
 chl2c          10  0.39094662499999999        2.5387016219684602E-002  0.39094662499999999        0.0000000000000000        5.4053245035270798E-016
 chl          10   1.8285853428481077E-026   4.6773273534414263E-026  0.39094662499999999     
 chl2c          11  0.49737575000000001        2.1820572217820047E-002  0.49737575000000001        0.0000000000000000        5.4095128141162933E-016
 chl          11   2.3263892004134446E-026   4.6773273534414263E-026  0.49737575000000001     
 chl2c          12  0.30768942500000002        4.5290941298723353E-002  0.30768942500000002        0.0000000000000000        2.2147852786897492E-009
 chl          12   1.4391641639171644E-026   4.6773273534414263E-026  0.30768942500000002     
 chl2c          13  0.75666275000000005        3.7935816987997487E-002  0.75666275000000005        0.0000000000000000        1.1337178202548651E-005
 chl          13   4.5271447667873535E-026   5.9830416744941568E-026  0.75666275000000005     
 chl2c          14  0.39804095000000000        4.6856526101924839E-002  0.39804095000000000        0.0000000000000000        2.8404946646641614E-018
 chl          14   1.8617678232248110E-026   4.6773273534414263E-026  0.39804095000000000     
 chl2c          15  0.25607262500000000        2.0954299823745293E-002  0.25607262500000000        0.0000000000000000        5.4213655256754335E-016
 chl          15   1.1977354933800489E-026   4.6773273534414263E-026  0.25607262500000000     
 chl2c          16  0.71433214999999994        3.7823443882273475E-002  0.71433214999999994        0.0000000000000000        1.0906842691821173E-005
 chl          16   4.2738790228810389E-026   5.9830416744941958E-026  0.71433214999999994     
 chl2c          17  0.62580860000000005        3.7542254757581245E-002  0.62580860000000005        0.0000000000000000        8.5758744794889702E-016
 chl          17   3.7442389340568688E-026   5.9830416744941958E-026  0.62580860000000005     
 chl2c          18  0.47925950000000000        2.5694475239060960E-002  0.47925950000000000        0.0000000000000000        5.4145280149092072E-016
 chl          18   2.2416535687466612E-026   4.6773273534414263E-026  0.47925950000000000     
 chl2c          19  0.63367130000000005        3.7570220750293731E-002  0.63367130000000005        0.0000000000000000        3.9964140163302501E-006
 chl          19   3.7912817958309140E-026   5.9830416744941958E-026  0.63367130000000005     
 chl2c          20  0.50678202500000002        3.7020645196759419E-002  0.50678202500000002        0.0000000000000000        1.0659148272505225E-005
 chl          20   3.0320979754595399E-026   5.9830416744941568E-026  0.50678202500000002     
 chl2c          21  0.71973185000000006        3.7838475073783531E-002  0.71973185000000006        0.0000000000000000        8.4735090162749528E-006
 chl          21   4.3061856530107773E-026   5.9830416744941568E-026  0.71973185000000006     
 chl2c          22  0.64616892500000001        3.7613353106285476E-002  0.64616892500000001        0.0000000000000000        8.5758744794889702E-016
 chl          22   3.8660556070381144E-026   5.9830416744941958E-026  0.64616892500000001     
 chl2c          23  0.41564179999999995        3.2286562315070731E-002  0.41564179999999995        0.0000000000000000        3.4491219944424650E-009
 chl          23   1.9440927603736304E-026   4.6773273534414263E-026  0.41564179999999995     
 chl2c          24  0.57597492500000003        3.7348402796863071E-002  0.57597492500000003        0.0000000000000000        9.2306754000618199E-016
 chl          24   3.4460819797386466E-026   5.9830416744941568E-026  0.57597492500000003     
 chl2c          25  0.31406487500000002        4.5426679235459781E-002  0.31406487500000002        0.0000000000000000        2.6273148210045307E-009
 chl          25   1.4689842305926626E-026   4.6773273534414263E-026  0.31406487500000002     
 chl2c          26  0.49427735000000000        4.7955660680174553E-002  0.49427735000000000        0.0000000000000000        1.8652157433017842E-019
 chl          26   2.3118969693415416E-026   4.6773273534414263E-026  0.49427735000000000     
 chl2c          27  0.30964730000000001        4.5333133499525620E-002  0.30964730000000001        0.0000000000000000        2.8158867119186378E-018
 chl          27   1.4483217862092833E-026   4.6773273534414263E-026  0.30964730000000001     
 chl2c          28  0.28776342500000002        3.1209236063453518E-002  0.28776342500000002        0.0000000000000000        2.7983720443195263E-018
 chl          28   1.3459637390724904E-026   4.6773273534414263E-026  0.28776342500000002     
 chl2c          29  0.68676297499999994        3.7743217595736761E-002  0.68676297499999994        0.0000000000000000        9.2981322830403487E-016
 chl          29   4.1089314999245884E-026   5.9830416744941568E-026  0.68676297499999994     
 chl2c          30  0.38930277499999999        2.5380056985171612E-002  0.38930277499999999        0.0000000000000000        5.4246150137907408E-016
 chl          30   1.8208965182781531E-026   4.6773273534414263E-026  0.38930277499999999     
 chl2c          31  0.63559385000000002        3.7576959810037038E-002  0.63559385000000002        0.0000000000000000        9.3231147967234770E-016
 chl          31   3.8027844926021879E-026   5.9830416744941568E-026  0.63559385000000002     
 chl2c          32  0.24722667500000001        2.0893126428578448E-002  0.24722667500000001        0.0000000000000000        5.4262858309707636E-016
 chl          32   1.1563600894778737E-026   4.6773273534414263E-026  0.24722667500000001     
 chl2c          33  0.60343137499999999        3.7458922634011876E-002  0.60343137499999999        0.0000000000000000        3.0680818790947363E-006
 chl          33   3.6103550643223114E-026   5.9830416744941568E-026  0.60343137499999999     
 chl2c          34  0.38241020000000003        2.5350269098008315E-002  0.38241020000000003        0.0000000000000000        5.3754868926102820E-016
 chl          34   1.7886576886950066E-026   4.6773273534414263E-026  0.38241020000000003     
 chl2c          35  0.49574644999999995        2.5740370148566064E-002  0.49574644999999995        0.0000000000000000        5.3846182042689035E-016
 chl          35   2.3187684309564823E-026   4.6773273534414263E-026  0.49574644999999995     
 chl2c          36  0.69587337500000002        3.7770393924465726E-002  0.69587337500000002        0.0000000000000000        8.5758744794889702E-016
 chl          36   4.1634394027959274E-026   5.9830416744941958E-026  0.69587337500000002     
 chl2c          37  0.33194060000000003        2.1353674699533250E-002  0.33194060000000003        0.0000000000000000        5.3715306876264712E-016
 chl          37   1.5525948480977593E-026   4.6773273534414263E-026  0.33194060000000003     
 chl2c          38  0.38455722500000000        2.1543295686358745E-002  0.38455722500000000        0.0000000000000000        5.4267538510785042E-016
 chl          38   1.7987000274560292E-026   4.6773273534414263E-026  0.38455722500000000     
 chl2c          39  0.47091117500000002        2.5670077108751441E-002  0.47091117500000002        0.0000000000000000        5.4019551794236490E-016
 chl          39   2.2026057198687424E-026   4.6773273534414263E-026  0.47091117500000002     
 chl2c          40  0.66875547499999999        3.7687445774703773E-002  0.66875547499999999        0.0000000000000000        1.0905607733714683E-005
 chl          40   4.0011918769711611E-026   5.9830416744941958E-026  0.66875547499999999     
 chl2c          41  0.44304987499999998        2.5582381488167241E-002  0.44304987499999998        0.0000000000000000        6.8320197826034288E-006
 chl          41   2.0722892992763046E-026   4.6773273534414263E-026  0.44304987499999998     
 chl2c          42  0.76234377499999995        3.7949995630725070E-002  0.76234377499999995        0.0000000000000000        1.1864911489406942E-005
 chl          42   4.5611345761161962E-026   5.9830416744941568E-026  0.76234377499999995     
 chl2c          43  0.29539925000000000        2.1185090152268007E-002  0.29539925000000000        0.0000000000000000        2.8437623652264690E-006
 chl          43   1.3816789922110821E-026   4.6773273534414263E-026  0.29539925000000000     
 chl2c          44  0.62417262500000004        3.7536352708156646E-002  0.62417262500000004        0.0000000000000000        1.0127318099889447E-005
 chl          44   3.7344508274534134E-026   5.9830416744941568E-026  0.62417262500000004     
 chl2c          45  0.37662252499999999        4.6544927192009838E-002  0.37662252499999999        0.0000000000000000        2.4842534806101359E-019
 chl          45   1.7615868381046774E-026   4.6773273534414263E-026  0.37662252499999999     
 chl2c          46  0.51876034999999998        3.7083195475449568E-002  0.51876034999999998        0.0000000000000000        9.3228074527840903E-016
 chl          46   3.1037647931251746E-026   5.9830416744941568E-026  0.51876034999999998     
 chl2c          47  0.61962282499999999        3.7519784612651236E-002  0.61962282499999999        0.0000000000000000        1.2199346752653075E-006
 chl          47   3.7072291844427996E-026   5.9830416744941568E-026  0.61962282499999999     
 chl2c          48  0.71424949999999998        3.7823212136301673E-002  0.71424949999999998        0.0000000000000000        1.1737977247435224E-005
 chl          48   4.2733845244866138E-026   5.9830416744941568E-026  0.71424949999999998     
 chl2c          49  0.53276120000000005        3.7152990741888416E-002  0.53276120000000005        0.0000000000000000        1.6415024883452076E-006
 chl          49   3.1875324621535168E-026   5.9830416744941568E-026  0.53276120000000005     
 chl2c          50  0.38132569999999999        2.1533072915600981E-002  0.38132569999999999        0.0000000000000000        5.3934120142615361E-016
 chl          50   1.7835851271801992E-026   4.6773273534414263E-026  0.38132569999999999     
 chl2c          51  0.22275920000000002        2.0700971146093840E-002  0.22275920000000002        0.0000000000000000        5.4328656418892292E-016
 chl          51   1.0419176993907295E-026   4.6773273534414263E-026  0.22275920000000002     
 chl2c          52  0.63698869999999996        3.7581825176985564E-002  0.63698869999999996        0.0000000000000000        1.0723811243467841E-005
 chl          52   3.8111299382818804E-026   5.9830416744941958E-026  0.63698869999999996     
 chl2c          53  0.75269794999999995        3.7925801262726190E-002  0.75269794999999995        0.0000000000000000        1.0957767526650480E-005
 chl          53   4.5034232031563480E-026   5.9830416744941958E-026  0.75269794999999995     
 chl2c          54  0.51861124999999997        3.7082433371327092E-002  0.51861124999999997        0.0000000000000000        1.9475908599951275E-006
 chl          54   3.1028727216115075E-026   5.9830416744941568E-026  0.51861124999999997     
 chl2c          55  0.57808280000000001        3.7357235588660491E-002  0.57808280000000001        0.0000000000000000        9.3401487725609750E-016
 chl          55   3.4586934837082710E-026   5.9830416744941568E-026  0.57808280000000001     
 chl2c          56  0.61626080000000005        3.7507394187257688E-002  0.61626080000000005        0.0000000000000000        8.5758744794889702E-016
 chl          56   3.6871140487571329E-026   5.9830416744941958E-026  0.61626080000000005     
 chl2c          57  0.68163462500000005        3.7727617852646313E-002  0.68163462500000005        0.0000000000000000        9.3456030492858392E-016
 chl          57   4.0782483681531967E-026   5.9830416744941568E-026  0.68163462500000005     
 chl2c          58  0.69416802499999997        3.7765358178394853E-002  0.69416802499999997        0.0000000000000000        5.8572778161722728E-006
 chl          58   4.1532362226763285E-026   5.9830416744941958E-026  0.69416802499999997     
 chl2c          59  0.53705127500000005        3.7173699120809672E-002  0.53705127500000005        0.0000000000000000        1.1751237654638563E-005
 chl          59   3.2132001596652220E-026   5.9830416744941568E-026  0.53705127500000005     
 chl2c          60  0.64452155000000000        3.7607757740906807E-002  0.64452155000000000        0.0000000000000000        7.7742766445149323E-006
 chl          60   3.8561992937595696E-026   5.9830416744941568E-026  0.64452155000000000     
 chl2c          61  0.70794139999999994        3.7805373434125003E-002  0.70794139999999994        0.0000000000000000        9.3034952228402182E-016
 chl          61   4.2356428992997374E-026   5.9830416744941568E-026  0.70794139999999994     
 chl2c          62  0.76481592499999995        3.7956103087269030E-002  0.76481592499999995        0.0000000000000000        1.1647393219097559E-005
 chl          62   4.5759255525917972E-026   5.9830416744941568E-026  0.76481592499999995     
 chl2c          63  0.72597904999999996        3.7855601011927406E-002  0.72597904999999996        0.0000000000000000        7.5721043901776037E-007
 chl          63   4.3435629109597051E-026   5.9830416744941958E-026  0.72597904999999996     
 chl2c          64  0.48435739999999999        2.5708982294816416E-002  0.48435739999999999        0.0000000000000000        5.3497731565132001E-016
 chl          64   2.2654981158617701E-026   4.6773273534414263E-026  0.48435739999999999     
 chl2c          65  0.76379975000000000        3.7953597170552002E-002  0.76379975000000000        0.0000000000000000        1.0787860361996506E-005
 chl          65   4.5698457352182480E-026   5.9830416744941958E-026  0.76379975000000000     
 chl2c          66  0.35213202499999996        3.1840477731474713E-002  0.35213202499999996        0.0000000000000000        2.0429937398623040E-019
 chl          66   1.6470367525552200E-026   4.6773273534414263E-026  0.35213202499999996     
 chl2c          67  0.75736760000000003        3.7937587124568600E-002  0.75736760000000003        0.0000000000000000        1.8600065789297441E-006
 chl          67   4.5313619137116206E-026   5.9830416744941568E-026  0.75736760000000003     
 chl2c          68  0.72590779999999999        3.7855407263856986E-002  0.72590779999999999        0.0000000000000000        6.9818621328823892E-006
 chl          68   4.3431366192403976E-026   5.9830416744941958E-026  0.72590779999999999     
 chl2c          69  0.45524217500000003        2.1732330561541505E-002  0.45524217500000003        0.0000000000000000        5.3799167082674643E-016
 chl          69   2.1293166775676688E-026   4.6773273534414263E-026  0.45524217500000003     
 chl2c          70  0.48694062500000002        3.2658010878182209E-002  0.48694062500000002        0.0000000000000000        3.4605167205748767E-018
 chl          70   2.2775807048143642E-026   4.6773273534414263E-026  0.48694062500000002     
 chl2c          71  0.23986107500000001        4.3481058864416305E-002  0.23986107500000001        0.0000000000000000        2.5623629495717230E-009
 chl          71   1.1219087671233655E-026   4.6773273534414263E-026  0.23986107500000001     
 chl2c          72  0.62790522500000001        3.7549776402781669E-002  0.62790522500000001        0.0000000000000000        1.0483388412886833E-005
 chl          72   3.7567831288076547E-026   5.9830416744941958E-026  0.62790522500000001     
 chl2c          73  0.35362212500000001        3.1852614277819484E-002  0.35362212500000001        0.0000000000000000        2.5656930221988858E-019
 chl          73   1.6540064380445832E-026   4.6773273534414263E-026  0.35362212500000001     
 chl2c          74  0.64719590000000005        3.7616827685877569E-002  0.64719590000000005        0.0000000000000000        8.0060958406036360E-006
 chl          74   3.8722000412617530E-026   5.9830416744941568E-026  0.64719590000000005     
 chl2c          75  0.71554212500000003        3.7826830779512356E-002  0.71554212500000003        0.0000000000000000        8.5758744794889702E-016
 chl          75   4.2811183537311351E-026   5.9830416744941958E-026  0.71554212500000003     
 chl2c          76  0.55513977500000000        3.7257729557919804E-002  0.55513977500000000        0.0000000000000000        8.5758744794889702E-016
 chl          76   3.3214244089943310E-026   5.9830416744941958E-026  0.55513977500000000     
 chl2c          77  0.52973029999999999        3.7138172437479272E-002  0.52973029999999999        0.0000000000000000        1.0035941232187124E-005
 chl          77   3.1693984611422919E-026   5.9830416744941568E-026  0.52973029999999999     
 chl2c          78  0.45117492500000000        4.7515248899399322E-002  0.45117492500000000        0.0000000000000000        3.5722374579629316E-018
 chl          78   2.1102928178893840E-026   4.6773273534414263E-026  0.45117492500000000     
 prod   9.2735032171259866E-010   0.0000000000000000        10.000000000000000     
 dcdom   1.2503883203337297E-012  -2.8935187161300057E-016
 chl2c           1  0.60826437499999997        3.7477407714772232E-002  0.60826437499999997        0.0000000000000000        9.0751779779373504E-006
 chl           1   2.1765850293754657E-021   3.5783536219353072E-021  0.60826437499999997     
 chl2c           2  0.48302390000000001        3.2640259920490348E-002  0.48302390000000001        0.0000000000000000        1.8647679588910427E-019
 chl           2   1.7287112144463653E-021   3.5789351509239301E-021  0.48302390000000001     
 chl2c           3  0.75128689999999998        3.7922212503796585E-002  0.75128689999999998        0.0000000000000000        8.8068941909890699E-016
 chl           3   2.6883701997275490E-021   3.5783536219353072E-021  0.75128689999999998     
 chl2c           4  0.77318742499999993        3.7976509103863923E-002  0.77318742499999993        0.0000000000000000        8.8068941909890699E-016
 chl           4   2.7667380226835833E-021   3.5783536219353072E-021  0.77318742499999993     
 chl2c           5  0.48489679999999996        2.5710500362372445E-002  0.48489679999999996        0.0000000000000000        5.3956951445363503E-016
 chl           5   1.7354142020905306E-021   3.5789351509239301E-021  0.48489679999999996     
 chl2c           6  0.29222855000000003        3.1261039902252048E-002  0.29222855000000003        0.0000000000000000        4.2339496455563203E-008
 chl           6   1.0458670296985314E-021   3.5789351509239301E-021  0.29222855000000003     
 chl2c           7  0.22770740000000000        4.3064391842467263E-002  0.22770740000000000        0.0000000000000000        1.8196269255732189E-019
 chl           7   8.1495001798549572E-022   3.5789351509239301E-021  0.22770740000000000     
 chl2c           8  0.49578364999999996        4.7969800906495587E-002  0.49578364999999996        0.0000000000000000        1.9334433846939029E-019
 chl           8   1.7743775322383670E-021   3.5789351509239301E-021  0.49578364999999996     
 chl2c           9  0.28700202499999999        2.4803669054600401E-002  0.28700202499999999        0.0000000000000000        5.4184070760454469E-016
 chl           9   1.0271616356588486E-021   3.5789351509239301E-021  0.28700202499999999     
 chl2c          10  0.39094662499999999        2.5387016219684602E-002  0.39094662499999999        0.0000000000000000        5.4184857116267939E-016
 chl          10   1.3991726183475760E-021   3.5789351509239301E-021  0.39094662499999999     
 chl2c          11  0.49737575000000001        2.1820572217820047E-002  0.49737575000000001        0.0000000000000000        5.4221110388093759E-016
 chl          11   1.7800755548921530E-021   3.5789351509239301E-021  0.49737575000000001     
 chl2c          12  0.30768942500000002        4.5290941298723353E-002  0.30768942500000002        0.0000000000000000        2.2584313007821249E-009
 chl          12   1.1012004987000723E-021   3.5789351509239301E-021  0.30768942500000002     
 chl2c          13  0.75666275000000005        3.7935816987997487E-002  0.75666275000000005        0.0000000000000000        1.1043113706823414E-005
 chl          13   2.7076068920460296E-021   3.5783536219353065E-021  0.75666275000000005     
 chl2c          14  0.39804095000000000        4.6856526101924839E-002  0.39804095000000000        0.0000000000000000        2.7150024890283998E-018
 chl          14   1.4245627474621546E-021   3.5789351509239301E-021  0.39804095000000000     
 chl2c          15  0.25607262500000000        2.0954299823745293E-002  0.25607262500000000        0.0000000000000000        5.4323449673780055E-016
 chl          15   9.1646731880186194E-022   3.5789351509239301E-021  0.25607262500000000     
 chl2c          16  0.71433214999999994        3.7823443882273475E-002  0.71433214999999994        0.0000000000000000        1.0477516079610206E-005
 chl          16   2.5561330362173350E-021   3.5783536219353072E-021  0.71433214999999994     
 chl2c          17  0.62580860000000005        3.7542254757581245E-002  0.62580860000000005        0.0000000000000000        2.8551423141520161E-006
 chl          17   2.2393644704482641E-021   3.5783536219353072E-021  0.62580860000000005     
 chl2c          18  0.47925950000000000        2.5694475239060960E-002  0.47925950000000000        0.0000000000000000        5.4264462551195962E-016
 chl          18   1.7152386709642272E-021   3.5789351509239301E-021  0.47925950000000000     
 chl2c          19  0.63367130000000005        3.7570220750293731E-002  0.63367130000000005        0.0000000000000000        1.3751656337948675E-007
 chl          19   2.2674999914714547E-021   3.5783536219353072E-021  0.63367130000000005     
 chl2c          20  0.50678202500000002        3.7020645196759419E-002  0.50678202500000002        0.0000000000000000        1.0917113169979150E-005
 chl          20   1.8134452946904590E-021   3.5783536219353065E-021  0.50678202500000002     
 chl2c          21  0.71973185000000006        3.7838475073783531E-002  0.71973185000000006        0.0000000000000000        4.1877212148707802E-006
 chl          21   2.5754550722696989E-021   3.5783536219353065E-021  0.71973185000000006     
 chl2c          22  0.64616892500000001        3.7613353106285476E-002  0.64616892500000001        0.0000000000000000        8.8068941909890699E-016
 chl          22   2.3122209131557939E-021   3.5783536219353072E-021  0.64616892500000001     
 chl2c          23  0.41564179999999995        3.2286562315070731E-002  0.41564179999999995        0.0000000000000000        3.1219649355015403E-009
 chl          23   1.4875550482132939E-021   3.5789351509239301E-021  0.41564179999999995     
 chl2c          24  0.57597492500000003        3.7348402796863071E-002  0.57597492500000003        0.0000000000000000        9.2824383774423565E-016
 chl          24   2.0610419590176665E-021   3.5783536219353065E-021  0.57597492500000003     
 chl2c          25  0.31406487500000002        4.5426679235459781E-002  0.31406487500000002        0.0000000000000000        2.3868423156254280E-009
 chl          25   1.1240178208080302E-021   3.5789351509239301E-021  0.31406487500000002     
 chl2c          26  0.49427735000000000        4.7955660680174553E-002  0.49427735000000000        0.0000000000000000        3.8423826766729614E-010
 chl          26   1.7689865822205301E-021   3.5789351509239301E-021  0.49427735000000000     
 chl2c          27  0.30964730000000001        4.5333133499525620E-002  0.30964730000000001        0.0000000000000000        2.6914766286063646E-018
 chl          27   1.1082076063586876E-021   3.5789351509239301E-021  0.30964730000000001     
 chl2c          28  0.28776342500000002        3.1209236063453518E-002  0.28776342500000002        0.0000000000000000        1.3254184103761486E-008
 chl          28   1.0298866368827621E-021   3.5789351509239301E-021  0.28776342500000002     
 chl2c          29  0.68676297499999994        3.7743217595736761E-002  0.68676297499999994        0.0000000000000000        9.3416903043246314E-016
 chl          29   2.4574807790023162E-021   3.5783536219353065E-021  0.68676297499999994     
 chl2c          30  0.38930277499999999        2.5380056985171612E-002  0.38930277499999999        0.0000000000000000        5.4351428781604908E-016
 chl          30   1.3932893857997298E-021   3.5789351509239301E-021  0.38930277499999999     
 chl2c          31  0.63559385000000002        3.7576959810037038E-002  0.63559385000000002        0.0000000000000000        9.3635891828478929E-016
 chl          31   2.2743795552273061E-021   3.5783536219353065E-021  0.63559385000000002     
 chl2c          32  0.24722667500000001        2.0893126428578448E-002  0.24722667500000001        0.0000000000000000        5.4365799896987605E-016
 chl          32   8.8480823740354639E-022   3.5789351509239301E-021  0.24722667500000001     
 chl2c          33  0.60343137499999999        3.7458922634011876E-002  0.60343137499999999        0.0000000000000000        9.2987482400900826E-016
 chl          33   2.1592908463206520E-021   3.5783536219353065E-021  0.60343137499999999     
 chl2c          34  0.38241020000000003        2.5350269098008315E-002  0.38241020000000003        0.0000000000000000        5.3925601862433203E-016
 chl          34   1.3686213068518504E-021   3.5789351509239301E-021  0.38241020000000003     
 chl2c          35  0.49574644999999995        2.5740370148566064E-002  0.49574644999999995        0.0000000000000000        5.4005098705410376E-016
 chl          35   1.7742443958507524E-021   3.5789351509239301E-021  0.49574644999999995     
 chl2c          36  0.69587337500000002        3.7770393924465726E-002  0.69587337500000002        0.0000000000000000        8.8068941909890699E-016
 chl          36   2.4900810118395963E-021   3.5783536219353072E-021  0.69587337500000002     
 chl2c          37  0.33194060000000003        2.1353674699533250E-002  0.33194060000000003        0.0000000000000000        5.3891124144875694E-016
 chl          37   1.1879938813587800E-021   3.5789351509239301E-021  0.33194060000000003     
 chl2c          38  0.38455722500000000        2.1543295686358745E-002  0.38455722500000000        0.0000000000000000        5.4369823512692719E-016
 chl          38   1.3763053700942627E-021   3.5789351509239301E-021  0.38455722500000000     
 chl2c          39  0.47091117500000002        2.5670077108751441E-002  0.47091117500000002        0.0000000000000000        5.4155663552361735E-016
 chl          39   1.6853605571703903E-021   3.5789351509239301E-021  0.47091117500000002     
 chl2c          40  0.66875547499999999        3.7687445774703773E-002  0.66875547499999999        0.0000000000000000        1.0477499673882216E-005
 chl          40   2.3930435761553168E-021   3.5783536219353072E-021  0.66875547499999999     
 chl2c          41  0.44304987499999998        2.5582381488167241E-002  0.44304987499999998        0.0000000000000000        6.0413288828684295E-006
 chl          41   1.5856467712499534E-021   3.5789351509239301E-021  0.44304987499999998     
 chl2c          42  0.76234377499999995        3.7949995630725070E-002  0.76234377499999995        0.0000000000000000        1.1112921172984342E-005
 chl          42   2.7279356084310841E-021   3.5783536219353065E-021  0.76234377499999995     
 chl2c          43  0.29539925000000000        2.1185090152268007E-002  0.29539925000000000        0.0000000000000000        5.4366008014661180E-016
 chl          43   1.0572147593815658E-021   3.5789351509239301E-021  0.29539925000000000     
 chl2c          44  0.62417262500000004        3.7536352708156646E-002  0.62417262500000004        0.0000000000000000        1.0707346637898347E-005
 chl          44   2.2335103733816178E-021   3.5783536219353065E-021  0.62417262500000004     
 chl2c          45  0.37662252499999999        4.6544927192009838E-002  0.37662252499999999        0.0000000000000000        2.4506743273446046E-019
 chl          45   1.3479075933522266E-021   3.5789351509239301E-021  0.37662252499999999     
 chl2c          46  0.51876034999999998        3.7083195475449568E-002  0.51876034999999998        0.0000000000000000        9.3633199389567698E-016
 chl          46   1.8563079773389270E-021   3.5783536219353065E-021  0.51876034999999998     
 chl2c          47  0.61962282499999999        3.7519784612651236E-002  0.61962282499999999        0.0000000000000000        4.9866759883265081E-006
 chl          47   2.2172295800725366E-021   3.5783536219353065E-021  0.61962282499999999     
 chl2c          48  0.71424949999999998        3.7823212136301673E-002  0.71424949999999998        0.0000000000000000        1.1126350820534003E-005
 chl          48   2.5558372852904815E-021   3.5783536219353065E-021  0.71424949999999998     
 chl2c          49  0.53276120000000005        3.7152990741888416E-002  0.53276120000000005        0.0000000000000000        5.4086814548812135E-006
 chl          49   1.9064079696466005E-021   3.5783536219353065E-021  0.53276120000000005     
 chl2c          50  0.38132569999999999        2.1533072915600981E-002  0.38132569999999999        0.0000000000000000        5.4081536779320523E-016
 chl          50   1.3647399516806733E-021   3.5789351509239301E-021  0.38132569999999999     
 chl2c          51  0.22275920000000002        2.0700971146093840E-002  0.22275920000000002        0.0000000000000000        5.4422282323663997E-016
 chl          51   7.9724073107169397E-022   3.5789351509239301E-021  0.22275920000000002     
 chl2c          52  0.63698869999999996        3.7581825176985564E-002  0.63698869999999996        0.0000000000000000        1.0466343110207387E-005
 chl          52   2.2793708217768628E-021   3.5783536219353072E-021  0.63698869999999996     
 chl2c          53  0.75269794999999995        3.7925801262726190E-002  0.75269794999999995        0.0000000000000000        1.0477593377375735E-005
 chl          53   2.6934194356057806E-021   3.5783536219353072E-021  0.75269794999999995     
 chl2c          54  0.51861124999999997        3.7082433371327092E-002  0.51861124999999997        0.0000000000000000        5.6910460963394846E-006
 chl          54   1.8557744448138964E-021   3.5783536219353065E-021  0.51861124999999997     
 chl2c          55  0.57808280000000001        3.7357235588660491E-002  0.57808280000000001        0.0000000000000000        9.3785047470219688E-016
 chl          55   2.0685846811585032E-021   3.5783536219353065E-021  0.57808280000000001     
 chl2c          56  0.61626080000000005        3.7507394187257688E-002  0.61626080000000005        0.0000000000000000        8.8068941909890699E-016
 chl          56   2.2051990657367503E-021   3.5783536219353072E-021  0.61626080000000005     
 chl2c          57  0.68163462500000005        3.7727617852646313E-002  0.68163462500000005        0.0000000000000000        9.3832777874897745E-016
 chl          57   2.4391297292052646E-021   3.5783536219353065E-021  0.68163462500000005     
 chl2c          58  0.69416802499999997        3.7765358178394853E-002  0.69416802499999997        0.0000000000000000        1.7354285081925329E-006
 chl          58   2.4839786664904287E-021   3.5783536219353072E-021  0.69416802499999997     
 chl2c          59  0.53705127500000005        3.7173699120809672E-002  0.53705127500000005        0.0000000000000000        1.0041428861340699E-005
 chl          59   1.9217593750612246E-021   3.5783536219353065E-021  0.53705127500000005     
 chl2c          60  0.64452155000000000        3.7607757740906807E-002  0.64452155000000000        0.0000000000000000        3.3838204433305396E-006
 chl          60   2.3063260228578579E-021   3.5783536219353065E-021  0.64452155000000000     
 chl2c          61  0.70794139999999994        3.7805373434125003E-002  0.70794139999999994        0.0000000000000000        9.3463935052211553E-016
 chl          61   2.5332646728079515E-021   3.5783536219353065E-021  0.70794139999999994     
 chl2c          62  0.76481592499999995        3.7956103087269030E-002  0.76481592499999995        0.0000000000000000        1.1032588928540026E-005
 chl          62   2.7367818353375517E-021   3.5783536219353065E-021  0.76481592499999995     
 chl2c          63  0.72597904999999996        3.7855601011927406E-002  0.72597904999999996        0.0000000000000000        8.8068941909890699E-016
 chl          63   2.5978097630166534E-021   3.5783536219353072E-021  0.72597904999999996     
 chl2c          64  0.48435739999999999        2.5708982294816416E-002  0.48435739999999999        0.0000000000000000        5.3701186879369321E-016
 chl          64   1.7334837244701223E-021   3.5789351509239301E-021  0.48435739999999999     
 chl2c          65  0.76379975000000000        3.7953597170552002E-002  0.76379975000000000        0.0000000000000000        9.4679874350127971E-006
 chl          65   2.7331456018457820E-021   3.5783536219353072E-021  0.76379975000000000     
 chl2c          66  0.35213202499999996        3.1840477731474713E-002  0.35213202499999996        0.0000000000000000        2.0153768235254300E-019
 chl          66   1.2602576820385240E-021   3.5789351509239301E-021  0.35213202499999996     
 chl2c          67  0.75736760000000003        3.7937587124568600E-002  0.75736760000000003        0.0000000000000000        5.6236705499921795E-006
 chl          67   2.7101290945964504E-021   3.5783536219353065E-021  0.75736760000000003     
 chl2c          68  0.72590779999999999        3.7855407263856986E-002  0.72590779999999999        0.0000000000000000        2.9243898699565665E-006
 chl          68   2.5975548053210905E-021   3.5783536219353072E-021  0.72590779999999999     
 chl2c          69  0.45524217500000003        2.1732330561541505E-002  0.45524217500000003        0.0000000000000000        5.3964182418522619E-016
 chl          69   1.6292822222905633E-021   3.5789351509239301E-021  0.45524217500000003     
 chl2c          70  0.48694062500000002        3.2658010878182209E-002  0.48694062500000002        0.0000000000000000        1.6717150016232667E-008
 chl          70   1.7427289192253680E-021   3.5789351509239301E-021  0.48694062500000002     
 chl2c          71  0.23986107500000001        4.3481058864416305E-002  0.23986107500000001        0.0000000000000000        1.4083094887607448E-009
 chl          71   8.5844723265590106E-022   3.5789351509239301E-021  0.23986107500000001     
 chl2c          72  0.62790522500000001        3.7549776402781669E-002  0.62790522500000001        0.0000000000000000        1.0432867702065819E-005
 chl          72   2.2468669361108539E-021   3.5783536219353072E-021  0.62790522500000001     
 chl2c          73  0.35362212500000001        3.1852614277819484E-002  0.35362212500000001        0.0000000000000000        2.5310135728206859E-019
 chl          73   1.2655906533069160E-021   3.5789351509239301E-021  0.35362212500000001     
 chl2c          74  0.64719590000000005        3.7616827685877569E-002  0.64719590000000005        0.0000000000000000        3.6041244185464919E-006
 chl          74   2.3158957928666806E-021   3.5783536219353065E-021  0.64719590000000005     
 chl2c          75  0.71554212500000003        3.7826830779512356E-002  0.71554212500000003        0.0000000000000000        8.8068941909890699E-016
 chl          75   2.5604627546410363E-021   3.5783536219353072E-021  0.71554212500000003     
 chl2c          76  0.55513977500000000        3.7257729557919804E-002  0.55513977500000000        0.0000000000000000        8.8068941909890699E-016
 chl          76   1.9864864245516017E-021   3.5783536219353072E-021  0.55513977500000000     
 chl2c          77  0.52973029999999999        3.7138172437479272E-002  0.52973029999999999        0.0000000000000000        6.5420839985063785E-006
 chl          77   1.8955623376538763E-021   3.5783536219353065E-021  0.52973029999999999     
 chl2c          78  0.45117492500000000        4.7515248899399322E-002  0.45117492500000000        0.0000000000000000        3.4146087135565065E-018
 chl          78   1.6147257982979679E-021   3.5789351509239301E-021  0.45117492500000000     
 prod   9.1480993835902526E-010   0.0000000000000000        10.000000000000000     
 dcdom   1.2346237661583300E-012  -2.5741432277376573E-016
 chl2c           1  0.60826437499999997        3.7477407714772232E-002  0.60826437499999997        0.0000000000000000        3.6254626821937463E-006
 chl           1   5.0315515859258286E-016   8.2719813829731991E-016  0.60826437499999997     
 chl2c           2  0.48302390000000001        3.2640259920490348E-002  0.48302390000000001        0.0000000000000000        1.7147007106278590E-019
 chl           2   3.9961220421708262E-016   8.2731352261675376E-016  0.48302390000000001     
 chl2c           3  0.75128689999999998        3.7922212503796585E-002  0.75128689999999998        0.0000000000000000        1.2839266463521762E-006
 chl           3   6.2146312500716471E-016   8.2719813829731991E-016  0.75128689999999998     
 chl2c           4  0.77318742499999993        3.7976509103863923E-002  0.77318742499999993        0.0000000000000000        9.1266969331120396E-016
 chl           4   6.3957919851489862E-016   8.2719813829731991E-016  0.77318742499999993     
 chl2c           5  0.48489679999999996        2.5710500362372445E-002  0.48489679999999996        0.0000000000000000        5.3956951445363503E-016
 chl           5   4.0116167971359151E-016   8.2731352261675376E-016  0.48489679999999996     
 chl2c           6  0.29222855000000003        3.1261039902252048E-002  0.29222855000000003        0.0000000000000000        2.8424863200224620E-008
 chl           6   2.4176463110968616E-016   8.2731352261675376E-016  0.29222855000000003     
 chl2c           7  0.22770740000000000        4.3064391842467263E-002  0.22770740000000000        0.0000000000000000        1.6731912998884276E-019
 chl           7   1.8838541121990220E-016   8.2731352261675376E-016  0.22770740000000000     
 chl2c           8  0.49578364999999996        4.7969800906495587E-002  0.49578364999999996        0.0000000000000000        1.7778512631721739E-019
 chl           8   4.1016851793729172E-016   8.2731352261675376E-016  0.49578364999999996     
 chl2c           9  0.28700202499999999        2.4803669054600401E-002  0.28700202499999999        0.0000000000000000        5.4184070760454469E-016
 chl           9   2.3744065630089163E-016   8.2731352261675376E-016  0.28700202499999999     
 chl2c          10  0.39094662499999999        2.5387016219684602E-002  0.39094662499999999        0.0000000000000000        5.4184857116267939E-016
 chl          10   3.2343542948388107E-016   8.2731352261675376E-016  0.39094662499999999     
 chl2c          11  0.49737575000000001        2.1820572217820047E-002  0.49737575000000001        0.0000000000000000        7.0015697136520489E-007
 chl          11   4.1148568379664988E-016   8.2731352261675376E-016  0.49737575000000001     
 chl2c          12  0.30768942500000002        4.5290941298723353E-002  0.30768942500000002        0.0000000000000000        1.8529044486988416E-009
 chl          12   2.5455562206867348E-016   8.2731352261675376E-016  0.30768942500000002     
 chl2c          13  0.75666275000000005        3.7935816987997487E-002  0.75666275000000005        0.0000000000000000        9.8176997643617928E-006
 chl          13   6.2591001811893035E-016   8.2719813829731981E-016  0.75666275000000005     
 chl2c          14  0.39804095000000000        4.6856526101924839E-002  0.39804095000000000        0.0000000000000000        2.3594717766786591E-018
 chl          14   3.2930466049021917E-016   8.2731352261675376E-016  0.39804095000000000     
 chl2c          15  0.25607262500000000        2.0954299823745293E-002  0.25607262500000000        0.0000000000000000        5.4323449673780055E-016
 chl          15   2.1185234543446899E-016   8.2731352261675376E-016  0.25607262500000000     
 chl2c          16  0.71433214999999994        3.7823443882273475E-002  0.71433214999999994        0.0000000000000000        9.5538533126458323E-006
 chl          16   5.9089422460592182E-016   8.2719813829731991E-016  0.71433214999999994     
 chl2c          17  0.62580860000000005        3.7542254757581245E-002  0.62580860000000005        0.0000000000000000        7.6691545757577153E-006
 chl          17   5.1766770885045217E-016   8.2719813829731991E-016  0.62580860000000005     
 chl2c          18  0.47925950000000000        2.5694475239060960E-002  0.47925950000000000        0.0000000000000000        5.4264462551195962E-016
 chl          18   3.9649786519254411E-016   8.2731352261675376E-016  0.47925950000000000     
 chl2c          19  0.63367130000000005        3.7570220750293731E-002  0.63367130000000005        0.0000000000000000        9.1266969331120396E-016
 chl          19   5.2417171965244256E-016   8.2719813829731991E-016  0.63367130000000005     
 chl2c          20  0.50678202500000002        3.7020645196759419E-002  0.50678202500000002        0.0000000000000000        9.8509816893895455E-006
 chl          20   4.1920914760254582E-016   8.2719813829731981E-016  0.50678202500000002     
 chl2c          21  0.71973185000000006        3.7838475073783531E-002  0.71973185000000006        0.0000000000000000        9.3329238592910873E-016
 chl          21   5.9536084639328586E-016   8.2719813829731981E-016  0.71973185000000006     
 chl2c          22  0.64616892500000001        3.7613353106285476E-002  0.64616892500000001        0.0000000000000000        9.1266969331120396E-016
 chl          22   5.3450973178558058E-016   8.2719813829731991E-016  0.64616892500000001     
 chl2c          23  0.41564179999999995        3.2286562315070731E-002  0.41564179999999995        0.0000000000000000        1.6301306826002887E-009
 chl          23   3.4386608170476822E-016   8.2731352261675376E-016  0.41564179999999995     
 chl2c          24  0.57597492500000003        3.7348402796863071E-002  0.57597492500000003        0.0000000000000000        9.2824383774423565E-016
 chl          24   4.7644538566593845E-016   8.2719813829731981E-016  0.57597492500000003     
 chl2c          25  0.31406487500000002        4.5426679235459781E-002  0.31406487500000002        0.0000000000000000        1.3149160826108709E-009
 chl          25   2.5983011806644044E-016   8.2731352261675376E-016  0.31406487500000002     
 chl2c          26  0.49427735000000000        4.7955660680174553E-002  0.49427735000000000        0.0000000000000000        1.5333252355367055E-009
 chl          26   4.0892233557817412E-016   8.2731352261675376E-016  0.49427735000000000     
 chl2c          27  0.30964730000000001        4.5333133499525620E-002  0.30964730000000001        0.0000000000000000        1.6455952479251820E-008
 chl          27   2.5617539853176675E-016   8.2731352261675376E-016  0.30964730000000001     
 chl2c          28  0.28776342500000002        3.1209236063453518E-002  0.28776342500000002        0.0000000000000000        2.3170796319479815E-008
 chl          28   2.3807057281701202E-016   8.2731352261675376E-016  0.28776342500000002     
 chl2c          29  0.68676297499999994        3.7743217595736761E-002  0.68676297499999994        0.0000000000000000        9.3416903043246314E-016
 chl          29   5.6808905437152872E-016   8.2719813829731981E-016  0.68676297499999994     
 chl2c          30  0.38930277499999999        2.5380056985171612E-002  0.38930277499999999        0.0000000000000000        3.0476147467258740E-006
 chl          30   3.2207545014972751E-016   8.2731352261675376E-016  0.38930277499999999     
 chl2c          31  0.63559385000000002        3.7576959810037038E-002  0.63559385000000002        0.0000000000000000        9.3635891828478929E-016
 chl          31   5.2576204943322594E-016   8.2719813829731981E-016  0.63559385000000002     
 chl2c          32  0.24722667500000001        2.0893126428578448E-002  0.24722667500000001        0.0000000000000000        5.4365799896987595E-016
 chl          32   2.0453397137907733E-016   8.2731352261675376E-016  0.24722667500000001     
 chl2c          33  0.60343137499999999        3.7458922634011876E-002  0.60343137499999999        0.0000000000000000        9.2987482400900826E-016
 chl          33   4.9915730999019190E-016   8.2719813829731981E-016  0.60343137499999999     
 chl2c          34  0.38241020000000003        2.5350269098008315E-002  0.38241020000000003        0.0000000000000000        5.3925601862433203E-016
 chl          34   3.1637312964657738E-016   8.2731352261675376E-016  0.38241020000000003     
 chl2c          35  0.49574644999999995        2.5740370148566064E-002  0.49574644999999995        0.0000000000000000        5.4005098705410376E-016
 chl          35   4.1013774187425034E-016   8.2731352261675376E-016  0.49574644999999995     
 chl2c          36  0.69587337500000002        3.7770393924465726E-002  0.69587337500000002        0.0000000000000000        9.1266969331120396E-016
 chl          36   5.7562516029067279E-016   8.2719813829731991E-016  0.69587337500000002     
 chl2c          37  0.33194060000000003        2.1353674699533250E-002  0.33194060000000003        0.0000000000000000        5.3891124144875694E-016
 chl          37   2.7461894708551883E-016   8.2731352261675376E-016  0.33194060000000003     
 chl2c          38  0.38455722500000000        2.1543295686358745E-002  0.38455722500000000        0.0000000000000000        5.4369823512692719E-016
 chl          38   3.1814939246247356E-016   8.2731352261675376E-016  0.38455722500000000     
 chl2c          39  0.47091117500000002        2.5670077108751441E-002  0.47091117500000002        0.0000000000000000        5.4155663552361735E-016
 chl          39   3.8959118302884458E-016   8.2731352261675376E-016  0.47091117500000002     
 chl2c          40  0.66875547499999999        3.7687445774703773E-002  0.66875547499999999        0.0000000000000000        9.5550702778430043E-006
 chl          40   5.5319328389613986E-016   8.2719813829731991E-016  0.66875547499999999     
 chl2c          41  0.44304987499999998        2.5582381488167241E-002  0.44304987499999998        0.0000000000000000        2.2002191251480206E-006
 chl          41   3.6654115278116243E-016   8.2731352261675376E-016  0.44304987499999998     
 chl2c          42  0.76234377499999995        3.7949995630725070E-002  0.76234377499999995        0.0000000000000000        9.7003426280514396E-006
 chl          42   6.3060935142255082E-016   8.2719813829731981E-016  0.76234377499999995     
 chl2c          43  0.29539925000000000        2.1185090152268007E-002  0.29539925000000000        0.0000000000000000        5.4366008014661180E-016
 chl          43   2.4438779409584709E-016   8.2731352261675376E-016  0.29539925000000000     
 chl2c          44  0.62417262500000004        3.7536352708156646E-002  0.62417262500000004        0.0000000000000000        9.7800264883091788E-006
 chl          44   5.1631443337615122E-016   8.2719813829731981E-016  0.62417262500000004     
 chl2c          45  0.37662252499999999        4.6544927192009838E-002  0.37662252499999999        0.0000000000000000        2.2534755344976987E-019
 chl          45   3.1158490785456638E-016   8.2731352261675376E-016  0.37662252499999999     
 chl2c          46  0.51876034999999998        3.7083195475449568E-002  0.51876034999999998        0.0000000000000000        9.3633199389567698E-016
 chl          46   4.2911759574246602E-016   8.2719813829731981E-016  0.51876034999999998     
 chl2c          47  0.61962282499999999        3.7519784612651236E-002  0.61962282499999999        0.0000000000000000        8.7501568230205535E-006
 chl          47   5.1255084728652602E-016   8.2719813829731981E-016  0.61962282499999999     
 chl2c          48  0.71424949999999998        3.7823212136301673E-002  0.71424949999999998        0.0000000000000000        9.8376129889175626E-006
 chl          48   5.9082585667979147E-016   8.2719813829731981E-016  0.71424949999999998     
 chl2c          49  0.53276120000000005        3.7152990741888416E-002  0.53276120000000005        0.0000000000000000        8.8749046724905815E-006
 chl          49   4.4069907279704608E-016   8.2719813829731981E-016  0.53276120000000005     
 chl2c          50  0.38132569999999999        2.1533072915600981E-002  0.38132569999999999        0.0000000000000000        5.4081536779320523E-016
 chl          50   3.1547590813129945E-016   8.2731352261675376E-016  0.38132569999999999     
 chl2c          51  0.22275920000000002        2.0700971146093840E-002  0.22275920000000002        0.0000000000000000        5.4422282323663997E-016
 chl          51   1.8429169844728998E-016   8.2731352261675376E-016  0.22275920000000002     
 chl2c          52  0.63698869999999996        3.7581825176985564E-002  0.63698869999999996        0.0000000000000000        9.6057501905056757E-006
 chl          52   5.2691586675643001E-016   8.2719813829731991E-016  0.63698869999999996     
 chl2c          53  0.75269794999999995        3.7925801262726190E-002  0.75269794999999995        0.0000000000000000        9.3717405186953973E-006
 chl          53   6.2263034294020919E-016   8.2719813829731991E-016  0.75269794999999995     
 chl2c          54  0.51861124999999997        3.7082433371327092E-002  0.51861124999999997        0.0000000000000000        8.9324891829766480E-006
 chl          54   4.2899426050004588E-016   8.2719813829731981E-016  0.51861124999999997     
 chl2c          55  0.57808280000000001        3.7357235588660491E-002  0.57808280000000001        0.0000000000000000        9.3785047470219688E-016
 chl          55   4.7818901594170188E-016   8.2719813829731981E-016  0.57808280000000001     
 chl2c          56  0.61626080000000005        3.7507394187257688E-002  0.61626080000000005        0.0000000000000000        9.1266969331120396E-016
 chl          56   5.0976978646561702E-016   8.2719813829731991E-016  0.61626080000000005     
 chl2c          57  0.68163462500000005        3.7727617852646313E-002  0.68163462500000005        0.0000000000000000        9.3832777874897745E-016
 chl          57   5.6384689279899174E-016   8.2719813829731981E-016  0.68163462500000005     
 chl2c          58  0.69416802499999997        3.7765358178394853E-002  0.69416802499999997        0.0000000000000000        9.1266969331120396E-016
 chl          58   5.7421449794552743E-016   8.2719813829731991E-016  0.69416802499999997     
 chl2c          59  0.53705127500000005        3.7173699120809672E-002  0.53705127500000005        0.0000000000000000        4.5105490707764435E-006
 chl          59   4.4424781485020199E-016   8.2719813829731981E-016  0.53705127500000005     
 chl2c          60  0.64452155000000000        3.7607757740906807E-002  0.64452155000000000        0.0000000000000000        9.2749795366779000E-016
 chl          60   5.3314702625250290E-016   8.2719813829731981E-016  0.64452155000000000     
 chl2c          61  0.70794139999999994        3.7805373434125003E-002  0.70794139999999994        0.0000000000000000        1.3883560364476263E-006
 chl          61   5.8560780810359817E-016   8.2719813829731981E-016  0.70794139999999994     
 chl2c          62  0.76481592499999995        3.7956103087269030E-002  0.76481592499999995        0.0000000000000000        9.7487185017007618E-006
 chl          62   6.3265430930014257E-016   8.2719813829731981E-016  0.76481592499999995     
 chl2c          63  0.72597904999999996        3.7855601011927406E-002  0.72597904999999996        0.0000000000000000        9.1266969331120396E-016
 chl          63   6.0052851860285692E-016   8.2719813829731991E-016  0.72597904999999996     
 chl2c          64  0.48435739999999999        2.5708982294816416E-002  0.48435739999999999        0.0000000000000000        5.3701186879369321E-016
 chl          64   4.0071542679949203E-016   8.2731352261675376E-016  0.48435739999999999     
 chl2c          65  0.76379975000000000        3.7953597170552002E-002  0.76379975000000000        0.0000000000000000        4.5086018728911256E-006
 chl          65   6.3181373123195838E-016   8.2719813829731991E-016  0.76379975000000000     
 chl2c          66  0.35213202499999996        3.1840477731474713E-002  0.35213202499999996        0.0000000000000000        1.8531933998375358E-019
 chl          66   2.9132358602892076E-016   8.2731352261675376E-016  0.35213202499999996     
 chl2c          67  0.75736760000000003        3.7937587124568600E-002  0.75736760000000003        0.0000000000000000        8.9453146487691401E-006
 chl          67   6.2649306872670927E-016   8.2719813829731981E-016  0.75736760000000003     
 chl2c          68  0.72590779999999999        3.7855407263856986E-002  0.72590779999999999        0.0000000000000000        9.1266969331120396E-016
 chl          68   6.0046958073550319E-016   8.2719813829731991E-016  0.72590779999999999     
 chl2c          69  0.45524217500000003        2.1732330561541505E-002  0.45524217500000003        0.0000000000000000        5.3964182418522619E-016
 chl          69   3.7662800744296268E-016   8.2731352261675376E-016  0.45524217500000003     
 chl2c          70  0.48694062500000002        3.2658010878182209E-002  0.48694062500000002        0.0000000000000000        2.8719439633788341E-008
 chl          70   4.0285256377395372E-016   8.2731352261675376E-016  0.48694062500000002     
 chl2c          71  0.23986107500000001        4.3481058864416305E-002  0.23986107500000001        0.0000000000000000        2.0723993571802848E-019
 chl          71   1.9844031089689138E-016   8.2731352261675376E-016  0.23986107500000001     
 chl2c          72  0.62790522500000001        3.7549776402781669E-002  0.62790522500000001        0.0000000000000000        9.6116505354517841E-006
 chl          72   5.1940203314715974E-016   8.2719813829731991E-016  0.62790522500000001     
 chl2c          73  0.35362212500000001        3.1852614277819484E-002  0.35362212500000001        0.0000000000000000        2.3273528404758806E-019
 chl          73   2.9255636590897206E-016   8.2731352261675376E-016  0.35362212500000001     
 chl2c          74  0.64719590000000005        3.7616827685877569E-002  0.64719590000000005        0.0000000000000000        9.3433138257326475E-016
 chl          74   5.3535924359365844E-016   8.2719813829731981E-016  0.64719590000000005     
 chl2c          75  0.71554212500000003        3.7826830779512356E-002  0.71554212500000003        0.0000000000000000        9.1266969331120396E-016
 chl          75   5.9189511367330823E-016   8.2719813829731991E-016  0.71554212500000003     
 chl2c          76  0.55513977500000000        3.7257729557919804E-002  0.55513977500000000        0.0000000000000000        9.1266969331120396E-016
 chl          76   4.5921058837479302E-016   8.2719813829731991E-016  0.55513977500000000     
 chl2c          77  0.52973029999999999        3.7138172437479272E-002  0.52973029999999999        0.0000000000000000        9.2657737451998488E-016
 chl          77   4.3819191795968071E-016   8.2719813829731981E-016  0.52973029999999999     
 chl2c          78  0.45117492500000000        4.7515248899399322E-002  0.45117492500000000        0.0000000000000000        2.9679161183533964E-018
 chl          78   3.7326311651809971E-016   8.2731352261675376E-016  0.45117492500000000     
 prod   8.4116767438983289E-010   0.0000000000000000        10.000000000000000     
 dcdom   1.1379956427742295E-012  -2.3722618006369303E-016
 chl2c           1  0.60826437499999997        3.7477407714772232E-002  0.60826437499999997        0.0000000000000000        9.3035873392344904E-016
 chl           1   1.5723614539428594E-010   2.5849967852265874E-010  0.60826437499999997     
 chl2c           2  0.48302390000000001        3.2640259920490348E-002  0.48302390000000001        0.0000000000000000        1.3898055676410964E-019
 chl           2   1.2487893966207151E-010   2.5853573635191033E-010  0.48302390000000001     
 chl2c           3  0.75128689999999998        3.7922212503796585E-002  0.75128689999999998        0.0000000000000000        5.9665906816455104E-006
 chl           3   1.9420742212828487E-010   2.5849967852265874E-010  0.75128689999999998     
 chl2c           4  0.77318742499999993        3.7976509103863923E-002  0.77318742499999993        0.0000000000000000        9.3035873392344904E-016
 chl           4   1.9986870080026230E-010   2.5849967852265874E-010  0.77318742499999993     
 chl2c           5  0.48489679999999996        2.5710500362372445E-002  0.48489679999999996        0.0000000000000000        5.3956951445367714E-016
 chl           5   1.2536315124268498E-010   2.5853573635191033E-010  0.48489679999999996     
 chl2c           6  0.29222855000000003        3.1261039902252048E-002  0.29222855000000003        0.0000000000000000        4.2131875863033925E-009
 chl           6   7.5551523357301047E-011   2.5853573635191033E-010  0.29222855000000003     
 chl2c           7  0.22770740000000000        4.3064391842467263E-002  0.22770740000000000        0.0000000000000000        1.3561592704961265E-019
 chl           7   5.8870500331778994E-011   2.5853573635191033E-010  0.22770740000000000     
 chl2c           8  0.49578364999999996        4.7969800906495587E-002  0.49578364999999996        0.0000000000000000        1.4409937166756567E-019
 chl           8   1.2817779102398779E-010   2.5853573635191033E-010  0.49578364999999996     
 chl2c           9  0.28700202499999999        2.4803669054600401E-002  0.28700202499999999        0.0000000000000000        5.4184070760457881E-016
 chl           9   7.4200279867864379E-011   2.5853573635191033E-010  0.28700202499999999     
 chl2c          10  0.39094662499999999        2.5387016219684602E-002  0.39094662499999999        0.0000000000000000        5.4184857116271341E-016
 chl          10   1.0107367356866916E-010   2.5853573635191033E-010  0.39094662499999999     
 chl2c          11  0.49737575000000001        2.1820572217820047E-002  0.49737575000000001        0.0000000000000000        4.1497485486269473E-006
 chl          11   1.2858940576983366E-010   2.5853573635191033E-010  0.49737575000000001     
 chl2c          12  0.30768942500000002        4.5290941298723353E-002  0.30768942500000002        0.0000000000000000        1.1638645932456625E-009
 chl          12   7.9548712060070895E-011   2.5853573635191033E-010  0.30768942500000002     
 chl2c          13  0.75666275000000005        3.7935816987997487E-002  0.75666275000000005        0.0000000000000000        8.4566957492699964E-006
 chl          13   1.9559707762507088E-010   2.5849967852265869E-010  0.75666275000000005     
 chl2c          14  0.39804095000000000        4.6856526101924839E-002  0.39804095000000000        0.0000000000000000        1.7574353267401810E-018
 chl          14   1.0290781010646392E-010   2.5853573635191033E-010  0.39804095000000000     
 chl2c          15  0.25607262500000000        2.0954299823745293E-002  0.25607262500000000        0.0000000000000000        5.4323449673782955E-016
 chl          15   6.6203924663941603E-011   2.5853573635191033E-010  0.25607262500000000     
 chl2c          16  0.71433214999999994        3.7823443882273475E-002  0.71433214999999994        0.0000000000000000        7.5472900204637280E-006
 chl          16   1.8465463113339962E-010   2.5849967852265874E-010  0.71433214999999994     
 chl2c          17  0.62580860000000005        3.7542254757581245E-002  0.62580860000000005        0.0000000000000000        8.5511293873544699E-006
 chl          17   1.6177132191671514E-010   2.5849967852265874E-010  0.62580860000000005     
 chl2c          18  0.47925950000000000        2.5694475239060960E-002  0.47925950000000000        0.0000000000000000        5.4264462551199078E-016
 chl          18   1.2390570773614838E-010   2.5853573635191033E-010  0.47925950000000000     
 chl2c          19  0.63367130000000005        3.7570220750293731E-002  0.63367130000000005        0.0000000000000000        9.2840765295995231E-016
 chl          19   1.6380382733903526E-010   2.5849967852265874E-010  0.63367130000000005     
 chl2c          20  0.50678202500000002        3.7020645196759419E-002  0.50678202500000002        0.0000000000000000        8.6734504036362723E-006
 chl          20   1.3100299054356198E-010   2.5849967852265869E-010  0.50678202500000002     
 chl2c          21  0.71973185000000006        3.7838475073783531E-002  0.71973185000000006        0.0000000000000000        9.3329238592922134E-016
 chl          21   1.8605045184751843E-010   2.5849967852265869E-010  0.71973185000000006     
 chl2c          22  0.64616892500000001        3.7613353106285476E-002  0.64616892500000001        0.0000000000000000        9.3035873392344904E-016
 chl          22   1.6703445938383198E-010   2.5849967852265874E-010  0.64616892500000001     
 chl2c          23  0.41564179999999995        3.2286562315070731E-002  0.41564179999999995        0.0000000000000000        1.9837660429256498E-019
 chl          23   1.0745825882163343E-010   2.5853573635191033E-010  0.41564179999999995     
 chl2c          24  0.57597492500000003        3.7348402796863071E-002  0.57597492500000003        0.0000000000000000        3.9819832438883762E-006
 chl          24   1.4888933294961246E-010   2.5849967852265869E-010  0.57597492500000003     
 chl2c          25  0.31406487500000002        4.5426679235459781E-002  0.31406487500000002        0.0000000000000000        1.5110298369333356E-019
 chl          25   8.1196993720395684E-011   2.5853573635191033E-010  0.31406487500000002     
 chl2c          26  0.49427735000000000        4.7955660680174553E-002  0.49427735000000000        0.0000000000000000        1.2805065684314004E-009
 chl          26   1.2778835864432091E-010   2.5853573635191033E-010  0.49427735000000000     
 chl2c          27  0.30964730000000001        4.5333133499525620E-002  0.30964730000000001        0.0000000000000000        1.6048747930388423E-008
 chl          27   8.0054892714880883E-011   2.5853573635191033E-010  0.30964730000000001     
 chl2c          28  0.28776342500000002        3.1209236063453518E-002  0.28776342500000002        0.0000000000000000        1.6182939118100901E-008
 chl          28   7.4397128977522724E-011   2.5853573635191033E-010  0.28776342500000002     
 chl2c          29  0.68676297499999994        3.7743217595736761E-002  0.68676297499999994        0.0000000000000000        9.3416903043257260E-016
 chl          29   1.7752800825876468E-010   2.5849967852265869E-010  0.68676297499999994     
 chl2c          30  0.38930277499999999        2.5380056985171612E-002  0.38930277499999999        0.0000000000000000        4.9026704331745179E-006
 chl          30   1.0064867959846706E-010   2.5853573635191033E-010  0.38930277499999999     
 chl2c          31  0.63559385000000002        3.7576959810037038E-002  0.63559385000000002        0.0000000000000000        9.3635891828489105E-016
 chl          31   1.6430080589597897E-010   2.5849967852265869E-010  0.63559385000000002     
 chl2c          32  0.24722667500000001        2.0893126428578448E-002  0.24722667500000001        0.0000000000000000        5.4365799896990347E-016
 chl          32   6.3916930466959427E-011   2.5853573635191033E-010  0.24722667500000001     
 chl2c          33  0.60343137499999999        3.7458922634011876E-002  0.60343137499999999        0.0000000000000000        9.2987482400913251E-016
 chl          33   1.5598681644798589E-010   2.5849967852265869E-010  0.60343137499999999     
 chl2c          34  0.38241020000000003        2.5350269098008315E-002  0.38241020000000003        0.0000000000000000        5.3925601862437542E-016
 chl          34   9.8866702645481304E-011   2.5853573635191033E-010  0.38241020000000003     
 chl2c          35  0.49574644999999995        2.5740370148566064E-002  0.49574644999999995        0.0000000000000000        2.6438238341266541E-006
 chl          35   1.2816817349459549E-010   2.5853573635191033E-010  0.49574644999999995     
 chl2c          36  0.69587337500000002        3.7770393924465726E-002  0.69587337500000002        0.0000000000000000        4.1336436832137562E-006
 chl          36   1.7988304372997757E-010   2.5849967852265874E-010  0.69587337500000002     
 chl2c          37  0.33194060000000003        2.1353674699533250E-002  0.33194060000000003        0.0000000000000000        5.3891124144880161E-016
 chl          37   8.5818507446094929E-011   2.5853573635191033E-010  0.33194060000000003     
 chl2c          38  0.38455722500000000        2.1543295686358745E-002  0.38455722500000000        0.0000000000000000        1.7434948329253990E-006
 chl          38   9.9421785334822259E-011   2.5853573635191033E-010  0.38455722500000000     
 chl2c          39  0.47091117500000002        2.5670077108751441E-002  0.47091117500000002        0.0000000000000000        2.9640541006496157E-007
 chl          39   1.2174736738496831E-010   2.5853573635191033E-010  0.47091117500000002     
 chl2c          40  0.66875547499999999        3.7687445774703773E-002  0.66875547499999999        0.0000000000000000        7.5578302913345032E-006
 chl          40   1.7287307529776795E-010   2.5849967852265874E-010  0.66875547499999999     
 chl2c          41  0.44304987499999998        2.5582381488167241E-002  0.44304987499999998        0.0000000000000000        5.3742548684663016E-016
 chl          41   1.1454422567374682E-010   2.5853573635191033E-010  0.44304987499999998     
 chl2c          42  0.76234377499999995        3.7949995630725070E-002  0.76234377499999995        0.0000000000000000        7.0424912398179306E-006
 chl          42   1.9706562076125003E-010   2.5849967852265869E-010  0.76234377499999995     
 chl2c          43  0.29539925000000000        2.1185090152268007E-002  0.29539925000000000        0.0000000000000000        5.4366008014663941E-016
 chl          43   7.6371262616552054E-011   2.5853573635191033E-010  0.29539925000000000     
 chl2c          44  0.62417262500000004        3.7536352708156646E-002  0.62417262500000004        0.0000000000000000        8.6466978086873268E-006
 chl          44   1.6134842290514401E-010   2.5849967852265869E-010  0.62417262500000004     
 chl2c          45  0.37662252499999999        4.6544927192009838E-002  0.37662252499999999        0.0000000000000000        1.8265291744526044E-019
 chl          45   9.7370381827590754E-011   2.5853573635191033E-010  0.37662252499999999     
 chl2c          46  0.51876034999999998        3.7083195475449568E-002  0.51876034999999998        0.0000000000000000        9.3633199389577874E-016
 chl          46   1.3409938370530190E-010   2.5849967852265869E-010  0.51876034999999998     
 chl2c          47  0.61962282499999999        3.7519784612651236E-002  0.61962282499999999        0.0000000000000000        8.7155069295865583E-006
 chl          47   1.6017230106780160E-010   2.5849967852265869E-010  0.61962282499999999     
 chl2c          48  0.71424949999999998        3.7823212136301673E-002  0.71424949999999998        0.0000000000000000        8.0671317520956184E-006
 chl          48   1.8463326613496971E-010   2.5849967852265869E-010  0.71424949999999998     
 chl2c          49  0.53276120000000005        3.7152990741888416E-002  0.53276120000000005        0.0000000000000000        8.6958217362172240E-006
 chl          49   1.3771859892934589E-010   2.5849967852265869E-010  0.53276120000000005     
 chl2c          50  0.38132569999999999        2.1533072915600981E-002  0.38132569999999999        0.0000000000000000        5.4081536779324309E-016
 chl          50   9.8586320639407654E-011   2.5853573635191033E-010  0.38132569999999999     
 chl2c          51  0.22275920000000002        2.0700971146093840E-002  0.22275920000000002        0.0000000000000000        2.0642271133312022E-006
 chl          51   5.7591213801162468E-011   2.5853573635191033E-010  0.22275920000000002     
 chl2c          52  0.63698869999999996        3.7581825176985564E-002  0.63698869999999996        0.0000000000000000        8.1996719072317765E-006
 chl          52   1.6466137417256630E-010   2.5849967852265874E-010  0.63698869999999996     
 chl2c          53  0.75269794999999995        3.7925801262726190E-002  0.75269794999999995        0.0000000000000000        6.4625417650291034E-006
 chl          53   1.9457217809966426E-010   2.5849967852265874E-010  0.75269794999999995     
 chl2c          54  0.51861124999999997        3.7082433371327092E-002  0.51861124999999997        0.0000000000000000        8.6587718832184131E-006
 chl          54   1.3406084140323417E-010   2.5849967852265869E-010  0.51861124999999997     
 chl2c          55  0.57808280000000001        3.7357235588660491E-002  0.57808280000000001        0.0000000000000000        9.3785047470229352E-016
 chl          55   1.4943421795947840E-010   2.5849967852265869E-010  0.57808280000000001     
 chl2c          56  0.61626080000000005        3.7507394187257688E-002  0.61626080000000005        0.0000000000000000        3.0164418080111280E-006
 chl          56   1.5930321868611651E-010   2.5849967852265874E-010  0.61626080000000005     
 chl2c          57  0.68163462500000005        3.7727617852646313E-002  0.68163462500000005        0.0000000000000000        9.3832777874907231E-016
 chl          57   1.7620233143241301E-010   2.5849967852265869E-010  0.68163462500000005     
 chl2c          58  0.69416802499999997        3.7765358178394853E-002  0.69416802499999997        0.0000000000000000        9.3035873392344904E-016
 chl          58   1.7944221130320894E-010   2.5849967852265874E-010  0.69416802499999997     
 chl2c          59  0.53705127500000005        3.7173699120809672E-002  0.53705127500000005        0.0000000000000000        9.3909834328180348E-016
 chl          59   1.3882758193768397E-010   2.5849967852265869E-010  0.53705127500000005     
 chl2c          60  0.64452155000000000        3.7607757740906807E-002  0.64452155000000000        0.0000000000000000        9.2749795366792233E-016
 chl          60   1.6660861347592568E-010   2.5849967852265869E-010  0.64452155000000000     
 chl2c          61  0.70794139999999994        3.7805373434125003E-002  0.70794139999999994        0.0000000000000000        6.0477519051474831E-006
 chl          61   1.8300262431288092E-010   2.5849967852265869E-010  0.70794139999999994     
 chl2c          62  0.76481592499999995        3.7956103087269030E-002  0.76481592499999995        0.0000000000000000        7.9290828483351833E-006
 chl          62   1.9770467074150982E-010   2.5849967852265869E-010  0.76481592499999995     
 chl2c          63  0.72597904999999996        3.7855601011927406E-002  0.72597904999999996        0.0000000000000000        9.2795625972020886E-016
 chl          63   1.8766535103918519E-010   2.5849967852265874E-010  0.72597904999999996     
 chl2c          64  0.48435739999999999        2.5708982294816416E-002  0.48435739999999999        0.0000000000000000        3.3471361800623845E-006
 chl          64   1.2522369706649678E-010   2.5853573635191033E-010  0.48435739999999999     
 chl2c          65  0.76379975000000000        3.7953597170552002E-002  0.76379975000000000        0.0000000000000000        9.3035873392344904E-016
 chl          65   1.9744198983068711E-010   2.5849967852265874E-010  0.76379975000000000     
 chl2c          66  0.35213202499999996        3.1840477731474713E-002  0.35213202499999996        0.0000000000000000        7.2713300511374353E-010
 chl          66   9.1038712376464291E-011   2.5853573635191033E-010  0.35213202499999996     
 chl2c          67  0.75736760000000003        3.7937587124568600E-002  0.75736760000000003        0.0000000000000000        8.6990848665317768E-006
 chl          67   1.9577928112347755E-010   2.5849967852265869E-010  0.75736760000000003     
 chl2c          68  0.72590779999999999        3.7855407263856986E-002  0.72590779999999999        0.0000000000000000        9.3035873392344904E-016
 chl          68   1.8764693293709046E-010   2.5849967852265874E-010  0.72590779999999999     
 chl2c          69  0.45524217500000003        2.1732330561541505E-002  0.45524217500000003        0.0000000000000000        5.3964182418526820E-016
 chl          69   1.1769637093207022E-010   2.5853573635191033E-010  0.45524217500000003     
 chl2c          70  0.48694062500000002        3.2658010878182209E-002  0.48694062500000002        0.0000000000000000        2.0020466374977915E-008
 chl          70   1.2589155304403445E-010   2.5853573635191033E-010  0.48694062500000002     
 chl2c          71  0.23986107500000001        4.3481058864416305E-002  0.23986107500000001        0.0000000000000000        1.6797494614074136E-019
 chl          71   6.2012659647285791E-011   2.5853573635191033E-010  0.23986107500000001     
 chl2c          72  0.62790522500000001        3.7549776402781669E-002  0.62790522500000001        0.0000000000000000        8.4384767962951214E-006
 chl          72   1.6231329880519770E-010   2.5849967852265874E-010  0.62790522500000001     
 chl2c          73  0.35362212500000001        3.1852614277819484E-002  0.35362212500000001        0.0000000000000000        1.4146195513654608E-010
 chl          73   9.1423956477202281E-011   2.5853573635191033E-010  0.35362212500000001     
 chl2c          74  0.64719590000000005        3.7616827685877569E-002  0.64719590000000005        0.0000000000000000        9.3433138257337362E-016
 chl          74   1.6729993209118277E-010   2.5849967852265869E-010  0.64719590000000005     
 chl2c          75  0.71554212500000003        3.7826830779512356E-002  0.71554212500000003        0.0000000000000000        4.6790154921006795E-006
 chl          75   1.8496740928192012E-010   2.5849967852265874E-010  0.71554212500000003     
 chl2c          76  0.55513977500000000        3.7257729557919804E-002  0.55513977500000000        0.0000000000000000        9.3035873392344904E-016
 chl          76   1.4350345337264111E-010   2.5849967852265874E-010  0.55513977500000000     
 chl2c          77  0.52973029999999999        3.7138172437479272E-002  0.52973029999999999        0.0000000000000000        9.2657737452012057E-016
 chl          77   1.3693511225371154E-010   2.5849967852265869E-010  0.52973029999999999     
 chl2c          78  0.45117492500000000        4.7515248899399322E-002  0.45117492500000000        0.0000000000000000        2.2111871433651473E-018
 chl          78   1.1664484145839291E-010   2.5853573635191033E-010  0.45117492500000000     
 prod   6.8174613662830979E-010   0.0000000000000000        10.000000000000000     
 dcdom   9.2632704880444984E-013  -8.6534830702956444E-016
 chl2c           1  0.60826437499999997        3.7477407714772232E-002  0.60826437499999997        0.0000000000000000        9.3573096002231998E-016
 chl           1   7.4690684785528051E-010   1.2279312722453629E-009  0.60826437499999997     
 chl2c           2  0.48302390000000001        3.2640259920490348E-002  0.48302390000000001        0.0000000000000000        1.0103120924581882E-019
 chl           2   5.9316913639699308E-010   1.2280326840907728E-009  0.48302390000000001     
 chl2c           3  0.75128689999999998        3.7922212503796585E-002  0.75128689999999998        0.0000000000000000        7.1681749341795610E-006
 chl           3   9.2252867893827473E-010   1.2279312722453629E-009  0.75128689999999998     
 chl2c           4  0.77318742499999993        3.7976509103863923E-002  0.77318742499999993        0.0000000000000000        9.3825302405480349E-016
 chl           4   9.4942101846436609E-010   1.2279312722453629E-009  0.77318742499999993     
 chl2c           5  0.48489679999999996        2.5710500362372445E-002  0.48489679999999996        0.0000000000000000        5.3956951445383550E-016
 chl           5   5.9546911881102664E-010   1.2280326840907728E-009  0.48489679999999996     
 chl2c           6  0.29222855000000003        3.1261039902252048E-002  0.29222855000000003        0.0000000000000000        1.5745095693342784E-018
 chl           6   3.5886621062445466E-010   1.2280326840907728E-009  0.29222855000000003     
 chl2c           7  0.22770740000000000        4.3064391842467263E-002  0.22770740000000000        0.0000000000000000        9.8585144401423760E-020
 chl           7   2.7963212960933125E-010   1.2280326840907728E-009  0.22770740000000000     
 chl2c           8  0.49578364999999996        4.7969800906495587E-002  0.49578364999999996        0.0000000000000000        1.0475257144055506E-019
 chl           8   6.0883852643782021E-010   1.2280326840907728E-009  0.49578364999999996     
 chl2c           9  0.28700202499999999        2.4803669054600401E-002  0.28700202499999999        0.0000000000000000        5.4184070760470661E-016
 chl           9   3.5244786710023707E-010   1.2280326840907728E-009  0.28700202499999999     
 chl2c          10  0.39094662499999999        2.5387016219684602E-002  0.39094662499999999        0.0000000000000000        5.4184857116284111E-016
 chl          10   4.8009523323497886E-010   1.2280326840907728E-009  0.39094662499999999     
 chl2c          11  0.49737575000000001        2.1820572217820047E-002  0.49737575000000001        0.0000000000000000        4.5880247869121163E-006
 chl          11   6.1079367727416120E-010   1.2280326840907728E-009  0.49737575000000001     
 chl2c          12  0.30768942500000002        4.5290941298723353E-002  0.30768942500000002        0.0000000000000000        5.3916909748367525E-010
 chl          12   3.7785267044909656E-010   1.2280326840907728E-009  0.30768942500000002     
 chl2c          13  0.75666275000000005        3.7935816987997487E-002  0.75666275000000005        0.0000000000000000        7.2643959346480820E-006
 chl          13   9.2912985322908360E-010   1.2279312721936999E-009  0.75666275000000005     
 chl2c          14  0.39804095000000000        4.6856526101924839E-002  0.39804095000000000        0.0000000000000000        1.5619086686063393E-009
 chl          14   4.8880729620654109E-010   1.2280326840907728E-009  0.39804095000000000     
 chl2c          15  0.25607262500000000        2.0954299823745293E-002  0.25607262500000000        0.0000000000000000        5.4323449673793841E-016
 chl          15   3.1446555300091994E-010   1.2280326840907728E-009  0.25607262500000000     
 chl2c          16  0.71433214999999994        3.7823443882273475E-002  0.71433214999999994        0.0000000000000000        5.5526960564305802E-006
 chl          16   8.7715078575526532E-010   1.2279312722453629E-009  0.71433214999999994     
 chl2c          17  0.62580860000000005        3.7542254757581245E-002  0.62580860000000005        0.0000000000000000        8.2298547845358424E-006
 chl          17   7.6844995038008955E-010   1.2279312722453629E-009  0.62580860000000005     
 chl2c          18  0.47925950000000000        2.5694475239060960E-002  0.47925950000000000        0.0000000000000000        1.3386047999173292E-006
 chl          18   5.8854633016100170E-010   1.2280326840907728E-009  0.47925950000000000     
 chl2c          19  0.63367130000000005        3.7570220750293731E-002  0.63367130000000005        0.0000000000000000        9.2840765296043766E-016
 chl          19   7.7810480559437314E-010   1.2279312722453629E-009  0.63367130000000005     
 chl2c          20  0.50678202500000002        3.7020645196759419E-002  0.50678202500000002        0.0000000000000000        7.8266927694325614E-006
 chl          20   6.2229349668314947E-010   1.2279312721936999E-009  0.50678202500000002     
 chl2c          21  0.71973185000000006        3.7838475073783531E-002  0.71973185000000006        0.0000000000000000        9.3329238592964318E-016
 chl          21   8.8378124620882529E-010   1.2279312721936999E-009  0.71973185000000006     
 chl2c          22  0.64616892500000001        3.7613353106285476E-002  0.64616892500000001        0.0000000000000000        9.3808852734240797E-016
 chl          22   7.9345103016066848E-010   1.2279312722453629E-009  0.64616892500000001     
 chl2c          23  0.41564179999999995        3.2286562315070731E-002  0.41564179999999995        0.0000000000000000        1.4421310884204369E-019
 chl          23   5.1042171527432015E-010   1.2280326840907728E-009  0.41564179999999995     
 chl2c          24  0.57597492500000003        3.7348402796863071E-002  0.57597492500000003        0.0000000000000000        5.8744513078586948E-006
 chl          24   7.0725762240692088E-010   1.2279312721936999E-009  0.57597492500000003     
 chl2c          25  0.31406487500000002        4.5426679235459781E-002  0.31406487500000002        0.0000000000000000        1.0984420575065108E-019
 chl          25   3.8568193142488310E-010   1.2280326840907728E-009  0.31406487500000002     
 chl2c          26  0.49427735000000000        4.7955660680174553E-002  0.49427735000000000        0.0000000000000000        8.7562042960207068E-010
 chl          26   6.0698874080577438E-010   1.2280326840907728E-009  0.49427735000000000     
 chl2c          27  0.30964730000000001        4.5333133499525620E-002  0.30964730000000001        0.0000000000000000        1.0444795903945921E-008
 chl          27   3.8025700494046076E-010   1.2280326840907728E-009  0.30964730000000001     
 chl2c          28  0.28776342500000002        3.1209236063453518E-002  0.28776342500000002        0.0000000000000000        1.0369362576271636E-008
 chl          28   3.5338289118590380E-010   1.2280326840907728E-009  0.28776342500000002     
 chl2c          29  0.68676297499999994        3.7743217595736761E-002  0.68676297499999994        0.0000000000000000        9.3416903043298300E-016
 chl          29   8.4329773358728006E-010   1.2279312721936999E-009  0.68676297499999994     
 chl2c          30  0.38930277499999999        2.5380056985171612E-002  0.38930277499999999        0.0000000000000000        4.7651299281038247E-006
 chl          30   4.7807653170723618E-010   1.2280326840907728E-009  0.38930277499999999     
 chl2c          31  0.63559385000000002        3.7576959810037038E-002  0.63559385000000002        0.0000000000000000        9.3635891828527266E-016
 chl          31   7.8046556482899167E-010   1.2279312721936999E-009  0.63559385000000002     
 chl2c          32  0.24722667500000001        2.0893126428578448E-002  0.24722667500000001        0.0000000000000000        5.4365799897000671E-016
 chl          32   3.0360243727908717E-010   1.2280326840907728E-009  0.24722667500000001     
 chl2c          33  0.60343137499999999        3.7458922634011876E-002  0.60343137499999999        0.0000000000000000        9.2987482400959892E-016
 chl          33   7.4097225598534364E-010   1.2279312721936999E-009  0.60343137499999999     
 chl2c          34  0.38241020000000003        2.5350269098008315E-002  0.38241020000000003        0.0000000000000000        5.3925601862453792E-016
 chl          34   4.6961222432968931E-010   1.2280326840907728E-009  0.38241020000000003     
 chl2c          35  0.49574644999999995        2.5740370148566064E-002  0.49574644999999995        0.0000000000000000        3.9412157854874815E-006
 chl          35   6.0879284362197198E-010   1.2280326840907728E-009  0.49574644999999995     
 chl2c          36  0.69587337500000002        3.7770393924465726E-002  0.69587337500000002        0.0000000000000000        5.9874361843409422E-006
 chl          36   8.5448467868542461E-010   1.2279312722453629E-009  0.69587337500000002     
 chl2c          37  0.33194060000000003        2.1353674699533250E-002  0.33194060000000003        0.0000000000000000        2.4831941581199054E-007
 chl          37   4.0763390597670162E-010   1.2280326840907728E-009  0.33194060000000003     
 chl2c          38  0.38455722500000000        2.1543295686358745E-002  0.38455722500000000        0.0000000000000000        3.4160698919066034E-006
 chl          38   4.7224884120324928E-010   1.2280326840907728E-009  0.38455722500000000     
 chl2c          39  0.47091117500000002        2.5670077108751441E-002  0.47091117500000002        0.0000000000000000        2.2084520353411470E-006
 chl          39   5.7829431420358964E-010   1.2280326840907728E-009  0.47091117500000002     
 chl2c          40  0.66875547499999999        3.7687445774703773E-002  0.66875547499999999        0.0000000000000000        5.5704080129551710E-006
 chl          40   8.2118576123780203E-010   1.2279312722453629E-009  0.66875547499999999     
 chl2c          41  0.44304987499999998        2.5582381488167241E-002  0.44304987499999998        0.0000000000000000        5.3742548684681702E-016
 chl          41   5.4407972718233134E-010   1.2280326840907728E-009  0.44304987499999998     
 chl2c          42  0.76234377499999995        3.7949995630725070E-002  0.76234377499999995        0.0000000000000000        4.6897909469926383E-006
 chl          42   9.3610576148469771E-010   1.2279312721936999E-009  0.76234377499999995     
 chl2c          43  0.29539925000000000        2.1185090152268007E-002  0.29539925000000000        0.0000000000000000        5.4366008014674245E-016
 chl          43   3.6275993385590123E-010   1.2280326840907728E-009  0.29539925000000000     
 chl2c          44  0.62417262500000004        3.7536352708156646E-002  0.62417262500000004        0.0000000000000000        7.9082536524929725E-006
 chl          44   7.6644108548473122E-010   1.2279312721936999E-009  0.62417262500000004     
 chl2c          45  0.37662252499999999        4.6544927192009838E-002  0.37662252499999999        0.0000000000000000        1.3278148350968270E-019
 chl          45   4.6250477026479417E-010   1.2280326840907728E-009  0.37662252499999999     
 chl2c          46  0.51876034999999998        3.7083195475449568E-002  0.51876034999999998        0.0000000000000000        9.3633199389616075E-016
 chl          46   6.3700205653914905E-010   1.2279312721936999E-009  0.51876034999999998     
 chl2c          47  0.61962282499999999        3.7519784612651236E-002  0.61962282499999999        0.0000000000000000        8.2275082725960909E-006
 chl          47   7.6085424378250429E-010   1.2279312721936999E-009  0.61962282499999999     
 chl2c          48  0.71424949999999998        3.7823212136301673E-002  0.71424949999999998        0.0000000000000000        6.3881310345899707E-006
 chl          48   8.7704929719871405E-010   1.2279312721936999E-009  0.71424949999999998     
 chl2c          49  0.53276120000000005        3.7152990741888416E-002  0.53276120000000005        0.0000000000000000        8.1975797916488342E-006
 chl          49   6.5419413809144227E-010   1.2279312721936999E-009  0.53276120000000005     
 chl2c          50  0.38132569999999999        2.1533072915600981E-002  0.38132569999999999        0.0000000000000000        5.4081536779338459E-016
 chl          50   4.6828042288379281E-010   1.2280326840907728E-009  0.38132569999999999     
 chl2c          51  0.22275920000000002        2.0700971146093840E-002  0.22275920000000002        0.0000000000000000        3.6263170366653231E-006
 chl          51   2.7355557828191329E-010   1.2280326840907728E-009  0.22275920000000002     
 chl2c          52  0.63698869999999996        3.7581825176985564E-002  0.63698869999999996        0.0000000000000000        6.7652297797368811E-006
 chl          52   7.8217834479691977E-010   1.2279312722453629E-009  0.63698869999999996     
 chl2c          53  0.75269794999999995        3.7925801262726190E-002  0.75269794999999995        0.0000000000000000        3.9139552411633036E-006
 chl          53   9.2426135135997652E-010   1.2279312722453629E-009  0.75269794999999995     
 chl2c          54  0.51861124999999997        3.7082433371327092E-002  0.51861124999999997        0.0000000000000000        8.1562106733103885E-006
 chl          54   6.3681897198646487E-010   1.2279312721936999E-009  0.51861124999999997     
 chl2c          55  0.57808280000000001        3.7357235588660491E-002  0.57808280000000001        0.0000000000000000        9.3785047470265541E-016
 chl          55   7.0984594803729617E-010   1.2279312721936999E-009  0.57808280000000001     
 chl2c          56  0.61626080000000005        3.7507394187257688E-002  0.61626080000000005        0.0000000000000000        5.2150415637129715E-006
 chl          56   7.5672590817894525E-010   1.2279312722453629E-009  0.61626080000000005     
 chl2c          57  0.68163462500000005        3.7727617852646313E-002  0.68163462500000005        0.0000000000000000        9.3832777874942809E-016
 chl          57   8.3700047224752565E-010   1.2279312721936999E-009  0.68163462500000005     
 chl2c          58  0.69416802499999997        3.7765358178394853E-002  0.69416802499999997        0.0000000000000000        9.3738677829286183E-016
 chl          58   8.5239062609030085E-010   1.2279312722453629E-009  0.69416802499999997     
 chl2c          59  0.53705127500000005        3.7173699120809672E-002  0.53705127500000005        0.0000000000000000        9.3909834328214900E-016
 chl          59   6.5946205534399864E-010   1.2279312721936999E-009  0.53705127500000005     
 chl2c          60  0.64452155000000000        3.7607757740906807E-002  0.64452155000000000        0.0000000000000000        9.2749795366841951E-016
 chl          60   7.9142816684775535E-010   1.2279312721936999E-009  0.64452155000000000     
 chl2c          61  0.70794139999999994        3.7805373434125003E-002  0.70794139999999994        0.0000000000000000        7.1718516958620454E-006
 chl          61   8.6930338394058892E-010   1.2279312721936999E-009  0.70794139999999994     
 chl2c          62  0.76481592499999995        3.7956103087269030E-002  0.76481592499999995        0.0000000000000000        6.2021735423798880E-006
 chl          62   9.3914139177925135E-010   1.2279312721936999E-009  0.76481592499999995     
 chl2c          63  0.72597904999999996        3.7855601011927406E-002  0.72597904999999996        0.0000000000000000        9.2795625972069993E-016
 chl          63   8.9145237848997994E-010   1.2279312722453629E-009  0.72597904999999996     
 chl2c          64  0.48435739999999999        2.5708982294816416E-002  0.48435739999999999        0.0000000000000000        4.2626644316381513E-006
 chl          64   5.9480671798122808E-010   1.2280326840907728E-009  0.48435739999999999     
 chl2c          65  0.76379975000000000        3.7953597170552002E-002  0.76379975000000000        0.0000000000000000        9.3121393359754798E-016
 chl          65   9.3789359875819021E-010   1.2279312722453629E-009  0.76379975000000000     
 chl2c          66  0.35213202499999996        3.1840477731474713E-002  0.35213202499999996        0.0000000000000000        7.9369375869853675E-010
 chl          66   4.3242963581506909E-010   1.2280326840907728E-009  0.35213202499999996     
 chl2c          67  0.75736760000000003        3.7937587124568600E-002  0.75736760000000003        0.0000000000000000        8.1960348071492799E-006
 chl          67   9.2999536058628929E-010   1.2279312721936999E-009  0.75736760000000003     
 chl2c          68  0.72590779999999999        3.7855407263856986E-002  0.72590779999999999        0.0000000000000000        9.3825302405480349E-016
 chl          68   8.9136488838683245E-010   1.2279312722453629E-009  0.72590779999999999     
 chl2c          69  0.45524217500000003        2.1732330561541505E-002  0.45524217500000003        0.0000000000000000        5.3964182418542558E-016
 chl          69   5.5905227007657131E-010   1.2280326840907728E-009  0.45524217500000003     
 chl2c          70  0.48694062500000002        3.2658010878182209E-002  0.48694062500000002        0.0000000000000000        1.2829274638772000E-008
 chl          70   5.9797900271158845E-010   1.2280326840907728E-009  0.48694062500000002     
 chl2c          71  0.23986107500000001        4.3481058864416305E-002  0.23986107500000001        0.0000000000000000        1.2211028773601272E-019
 chl          71   2.9455723974114817E-010   1.2280326840907728E-009  0.23986107500000001     
 chl2c          72  0.62790522500000001        3.7549776402781669E-002  0.62790522500000001        0.0000000000000000        7.3082824954221380E-006
 chl          72   7.7102446178376092E-010   1.2279312722453629E-009  0.62790522500000001     
 chl2c          73  0.35362212500000001        3.1852614277819484E-002  0.35362212500000001        0.0000000000000000        5.8706093677420880E-010
 chl          73   4.3425952731763281E-010   1.2280326840907728E-009  0.35362212500000001     
 chl2c          74  0.64719590000000005        3.7616827685877569E-002  0.64719590000000005        0.0000000000000000        9.3433138257378185E-016
 chl          74   7.9471208484554669E-010   1.2279312721936999E-009  0.64719590000000005     
 chl2c          75  0.71554212500000003        3.7826830779512356E-002  0.71554212500000003        0.0000000000000000        6.3542184983674108E-006
 chl          75   8.7863655189640059E-010   1.2279312722453629E-009  0.71554212500000003     
 chl2c          76  0.55513977500000000        3.7257729557919804E-002  0.55513977500000000        0.0000000000000000        9.3441820469022678E-016
 chl          76   6.8167349018975453E-010   1.2279312722453629E-009  0.55513977500000000     
 chl2c          77  0.52973029999999999        3.7138172437479272E-002  0.52973029999999999        0.0000000000000000        9.2657737452062958E-016
 chl          77   6.5047240119855035E-010   1.2279312721936999E-009  0.52973029999999999     
 chl2c          78  0.45117492500000000        4.7515248899399322E-002  0.45117492500000000        0.0000000000000000        1.5099242604487853E-018
 chl          78   5.5405755414220307E-010   1.2280326840907728E-009  0.45117492500000000     
 prod   4.9555775805048847E-010   0.0000000000000000        10.000000000000000     
 dcdom   6.7586308581664381E-013  -3.3343282103449147E-015
 chl2c           1  0.60826437499999997        3.7477407714772232E-002  0.60826437499999997        0.0000000000000000        9.3573096002196460E-016
 chl           1   2.0492167046967087E-010   3.3689572970580577E-010  0.60826437499999997     
 chl2c           2  0.48302390000000001        3.2640259920490348E-002  0.48302390000000001        0.0000000000000000        4.4690789722284555E-020
 chl           2   1.6269867037306868E-010   3.3683358188501370E-010  0.48302390000000001     
 chl2c           3  0.75128689999999998        3.7922212503796585E-002  0.75128689999999998        0.0000000000000000        7.3531459227241584E-006
 chl           3   2.5310534839391271E-010   3.3689572970580577E-010  0.75128689999999998     
 chl2c           4  0.77318742499999993        3.7976509103863923E-002  0.77318742499999993        0.0000000000000000        9.3841762804543993E-016
 chl           4   2.6048354174472793E-010   3.3689572970580577E-010  0.77318742499999993     
 chl2c           5  0.48489679999999996        2.5710500362372445E-002  0.48489679999999996        0.0000000000000000        5.3956951445369104E-016
 chl           5   1.6332952598858110E-010   3.3683358188501370E-010  0.48489679999999996     
 chl2c           6  0.29222855000000003        3.1261039902252048E-002  0.29222855000000003        0.0000000000000000        6.4353256504507307E-019
 chl           6   9.8432389225563835E-011   3.3683358188501370E-010  0.29222855000000003     
 chl2c           7  0.22770740000000000        4.3064391842467263E-002  0.22770740000000000        0.0000000000000000        4.3608673843170969E-020
 chl           7   7.6699499163723567E-011   3.3683358188501370E-010  0.22770740000000000     
 chl2c           8  0.49578364999999996        4.7969800906495587E-002  0.49578364999999996        0.0000000000000000        4.6337095324487720E-020
 chl           8   1.6699658266952596E-010   3.3683358188501370E-010  0.49578364999999996     
 chl2c           9  0.28700202499999999        2.4803669054600401E-002  0.28700202499999999        0.0000000000000000        5.4184070760459005E-016
 chl           9   9.6671920089002253E-011   3.3683358188501370E-010  0.28700202499999999     
 chl2c          10  0.39094662499999999        2.5387016219684602E-002  0.39094662499999999        0.0000000000000000        5.4184857116272465E-016
 chl          10   1.3168395202460724E-010   3.3683358188501370E-010  0.39094662499999999     
 chl2c          11  0.49737575000000001        2.1820572217820047E-002  0.49737575000000001        0.0000000000000000        4.5799009210848086E-006
 chl          11   1.6753285541524510E-010   3.3683358188501370E-010  0.49737575000000001     
 chl2c          12  0.30768942500000002        4.5290941298723353E-002  0.30768942500000002        0.0000000000000000        1.7505628954888597E-010
 chl          12   1.0364013113089029E-010   3.3683358188501370E-010  0.30768942500000002     
 chl2c          13  0.75666275000000005        3.7935816987997487E-002  0.75666275000000005        0.0000000000000000        6.6762395588873596E-006
 chl          13   2.5491644930175305E-010   3.3689572970488243E-010  0.75666275000000005     
 chl2c          14  0.39804095000000000        4.6856526101924839E-002  0.39804095000000000        0.0000000000000000        1.2638635469626723E-009
 chl          14   1.3407355892541364E-010   3.3683358188501370E-010  0.39804095000000000     
 chl2c          15  0.25607262500000000        2.0954299823745293E-002  0.25607262500000000        0.0000000000000000        5.4323449673783901E-016
 chl          15   8.6253859501447910E-011   3.3683358188501370E-010  0.25607262500000000     
 chl2c          16  0.71433214999999994        3.7823443882273475E-002  0.71433214999999994        0.0000000000000000        4.6388116488869098E-006
 chl          16   2.4065545092656711E-010   3.3689572970580577E-010  0.71433214999999994     
 chl2c          17  0.62580860000000005        3.7542254757581245E-002  0.62580860000000005        0.0000000000000000        8.0532676862520477E-006
 chl          17   2.1083224495316874E-010   3.3689572970580577E-010  0.62580860000000005     
 chl2c          18  0.47925950000000000        2.5694475239060960E-002  0.47925950000000000        0.0000000000000000        2.0206745909865710E-006
 chl          18   1.6143069403742073E-010   3.3683358188501370E-010  0.47925950000000000     
 chl2c          19  0.63367130000000005        3.7570220750293731E-002  0.63367130000000005        0.0000000000000000        9.2840765295999511E-016
 chl          19   2.1348115500712657E-010   3.3689572970580577E-010  0.63367130000000005     
 chl2c          20  0.50678202500000002        3.7020645196759419E-002  0.50678202500000002        0.0000000000000000        7.4097150955147510E-006
 chl          20   1.7073270011369297E-010   3.3689572970488243E-010  0.50678202500000002     
 chl2c          21  0.71973185000000006        3.7838475073783531E-002  0.71973185000000006        0.0000000000000000        9.3329238592925842E-016
 chl          21   2.4247458679759499E-010   3.3689572970488243E-010  0.71973185000000006     
 chl2c          22  0.64616892500000001        3.7613353106285476E-002  0.64616892500000001        0.0000000000000000        9.3808852734208059E-016
 chl          22   2.1769155150109107E-010   3.3689572970580577E-010  0.64616892500000001     
 chl2c          23  0.41564179999999995        3.2286562315070731E-002  0.41564179999999995        0.0000000000000000        6.3794934532100299E-020
 chl          23   1.4000211627513448E-010   3.3683358188501370E-010  0.41564179999999995     
 chl2c          24  0.57597492500000003        3.7348402796863071E-002  0.57597492500000003        0.0000000000000000        6.3264307093698565E-006
 chl          24   1.9404349264958993E-010   3.3689572970488243E-010  0.57597492500000003     
 chl2c          25  0.31406487500000002        4.5426679235459781E-002  0.31406487500000002        0.0000000000000000        4.8589620182578002E-020
 chl          25   1.0578759679051910E-010   3.3683358188501370E-010  0.31406487500000002     
 chl2c          26  0.49427735000000000        4.7955660680174553E-002  0.49427735000000000        0.0000000000000000        3.7842813008233947E-010
 chl          26   1.6648921024513258E-010   3.3683358188501370E-010  0.49427735000000000     
 chl2c          27  0.30964730000000001        4.5333133499525620E-002  0.30964730000000001        0.0000000000000000        4.1715663223552848E-009
 chl          27   1.0429960918002341E-010   3.3683358188501370E-010  0.30964730000000001     
 chl2c          28  0.28776342500000002        3.1209236063453518E-002  0.28776342500000002        0.0000000000000000        4.1235719652422945E-009
 chl          28   9.6928385178249499E-011   3.3683358188501370E-010  0.28776342500000002     
 chl2c          29  0.68676297499999994        3.7743217595736761E-002  0.68676297499999994        0.0000000000000000        9.3416903043260869E-016
 chl          29   2.3136751359692091E-010   3.3689572970488243E-010  0.68676297499999994     
 chl2c          30  0.38930277499999999        2.5380056985171612E-002  0.38930277499999999        0.0000000000000000        4.6645664563333291E-006
 chl          30   1.3113024814102556E-010   3.3683358188501370E-010  0.38930277499999999     
 chl2c          31  0.63559385000000002        3.7576959810037038E-002  0.63559385000000002        0.0000000000000000        9.3635891828492458E-016
 chl          31   2.1412885389168560E-010   3.3689572970488243E-010  0.63559385000000002     
 chl2c          32  0.24722667500000001        2.0893126428578448E-002  0.24722667500000001        0.0000000000000000        5.4365799896991264E-016
 chl          32   8.3274246477772176E-011   3.3683358188501370E-010  0.24722667500000001     
 chl2c          33  0.60343137499999999        3.7458922634011876E-002  0.60343137499999999        0.0000000000000000        9.2987482400917372E-016
 chl          33   2.0329345340744554E-010   3.3689572970488243E-010  0.60343137499999999     
 chl2c          34  0.38241020000000003        2.5350269098008315E-002  0.38241020000000003        0.0000000000000000        5.3925601862438962E-016
 chl          34   1.2880859741536448E-010   3.3683358188501370E-010  0.38241020000000003     
 chl2c          35  0.49574644999999995        2.5740370148566064E-002  0.49574644999999995        0.0000000000000000        4.1661985547875218E-006
 chl          35   1.6698405246027983E-010   3.3683358188501370E-010  0.49574644999999995     
 chl2c          36  0.69587337500000002        3.7770393924465726E-002  0.69587337500000002        0.0000000000000000        6.4219309886349736E-006
 chl          36   2.3443676845346684E-010   3.3689572970580577E-010  0.69587337500000002     
 chl2c          37  0.33194060000000003        2.1353674699533250E-002  0.33194060000000003        0.0000000000000000        9.1430446635227526E-007
 chl          37   1.1180874127106059E-010   3.3683358188501370E-010  0.33194060000000003     
 chl2c          38  0.38455722500000000        2.1543295686358745E-002  0.38455722500000000        0.0000000000000000        3.7942040914631446E-006
 chl          38   1.2953178753651115E-010   3.3683358188501370E-010  0.38455722500000000     
 chl2c          39  0.47091117500000002        2.5670077108751441E-002  0.47091117500000002        0.0000000000000000        2.8085405425361801E-006
 chl          39   1.5861869782493053E-010   3.3683358188501370E-010  0.47091117500000002     
 chl2c          40  0.66875547499999999        3.7687445774703773E-002  0.66875547499999999        0.0000000000000000        4.6586295418558024E-006
 chl          40   2.2530086374487774E-010   3.3689572970580577E-010  0.66875547499999999     
 chl2c          41  0.44304987499999998        2.5582381488167241E-002  0.44304987499999998        0.0000000000000000        5.3742548684664653E-016
 chl          41   1.4923407634995759E-010   3.3683358188501370E-010  0.44304987499999998     
 chl2c          42  0.76234377499999995        3.7949995630725070E-002  0.76234377499999995        0.0000000000000000        3.7002692061275698E-006
 chl          42   2.5683036236459968E-010   3.3689572970488243E-010  0.76234377499999995     
 chl2c          43  0.29539925000000000        2.1185090152268007E-002  0.29539925000000000        0.0000000000000000        5.4366008014664838E-016
 chl          43   9.9500387463646640E-011   3.3683358188501370E-010  0.29539925000000000     
 chl2c          44  0.62417262500000004        3.7536352708156646E-002  0.62417262500000004        0.0000000000000000        7.5523782429579743E-006
 chl          44   2.1028109196118696E-010   3.3689572970488243E-010  0.62417262500000004     
 chl2c          45  0.37662252499999999        4.6544927192009838E-002  0.37662252499999999        0.0000000000000000        5.8737295911050929E-020
 chl          45   1.2685911411432810E-010   3.3683358188501370E-010  0.37662252499999999     
 chl2c          46  0.51876034999999998        3.7083195475449568E-002  0.51876034999999998        0.0000000000000000        9.3633199389581247E-016
 chl          46   1.7476814665521019E-010   3.3689572970488243E-010  0.51876034999999998     
 chl2c          47  0.61962282499999999        3.7519784612651236E-002  0.61962282499999999        0.0000000000000000        8.0414679117205254E-006
 chl          47   2.0874828377017567E-010   3.3689572970488243E-010  0.61962282499999999     
 chl2c          48  0.71424949999999998        3.7823212136301673E-002  0.71424949999999998        0.0000000000000000        5.6003361746008832E-006
 chl          48   2.4062760649384740E-010   3.3689572970488243E-010  0.71424949999999998     
 chl2c          49  0.53276120000000005        3.7152990741888416E-002  0.53276120000000005        0.0000000000000000        8.0118113523164259E-006
 chl          49   1.7948497323244882E-010   3.3689572970488243E-010  0.53276120000000005     
 chl2c          50  0.38132569999999999        2.1533072915600981E-002  0.38132569999999999        0.0000000000000000        5.4081536779325552E-016
 chl          50   1.2844330139581017E-010   3.3683358188501370E-010  0.38132569999999999     
 chl2c          51  0.22275920000000002        2.0700971146093840E-002  0.22275920000000002        0.0000000000000000        3.9520841567231378E-006
 chl          51   7.5032779233840153E-011   3.3683358188501370E-010  0.22275920000000002     
 chl2c          52  0.63698869999999996        3.7581825176985564E-002  0.63698869999999996        0.0000000000000000        6.0450002574873414E-006
 chl          52   2.1459877290085258E-010   3.3689572970580577E-010  0.63698869999999996     
 chl2c          53  0.75269794999999995        3.7925801262726190E-002  0.75269794999999995        0.0000000000000000        2.8829820168163908E-006
 chl          53   2.5358072511331407E-010   3.3689572970580577E-010  0.75269794999999995     
 chl2c          54  0.51861124999999997        3.7082433371327092E-002  0.51861124999999997        0.0000000000000000        7.9712515699179112E-006
 chl          54   1.7471791550191121E-010   3.3689572970488243E-010  0.51861124999999997     
 chl2c          55  0.57808280000000001        3.7357235588660491E-002  0.57808280000000001        0.0000000000000000        9.3785047470232527E-016
 chl          55   1.9475362673584161E-010   3.3689572970488243E-010  0.57808280000000001     
 chl2c          56  0.61626080000000005        3.7507394187257688E-002  0.61626080000000005        0.0000000000000000        5.7959997133468492E-006
 chl          56   2.0761563190508365E-010   3.3689572970580577E-010  0.61626080000000005     
 chl2c          57  0.68163462500000005        3.7727617852646313E-002  0.68163462500000005        0.0000000000000000        9.3832777874910367E-016
 chl          57   2.2963979438148892E-010   3.3689572970488243E-010  0.68163462500000005     
 chl2c          58  0.69416802499999997        3.7765358178394853E-002  0.69416802499999997        0.0000000000000000        9.3738677829252597E-016
 chl          58   2.3386224332081300E-010   3.3689572970580577E-010  0.69416802499999997     
 chl2c          59  0.53705127500000005        3.7173699120809672E-002  0.53705127500000005        0.0000000000000000        9.3909834328183385E-016
 chl          59   1.8093028118006250E-010   3.3689572970488243E-010  0.53705127500000005     
 chl2c          60  0.64452155000000000        3.7607757740906807E-002  0.64452155000000000        0.0000000000000000        9.2749795366796631E-016
 chl          60   2.1713655789777185E-010   3.3689572970488243E-010  0.64452155000000000     
 chl2c          61  0.70794139999999994        3.7805373434125003E-002  0.70794139999999994        0.0000000000000000        7.3485714723043763E-006
 chl          61   2.3850243454129603E-010   3.3689572970488243E-010  0.70794139999999994     
 chl2c          62  0.76481592499999995        3.7956103087269030E-002  0.76481592499999995        0.0000000000000000        5.3986229427922459E-006
 chl          62   2.5766321914278962E-010   3.3689572970488243E-010  0.76481592499999995     
 chl2c          63  0.72597904999999996        3.7855601011927406E-002  0.72597904999999996        0.0000000000000000        9.2795625972025205E-016
 chl          63   2.4457924180087763E-010   3.3689572970580577E-010  0.72597904999999996     
 chl2c          64  0.48435739999999999        2.5708982294816416E-002  0.48435739999999999        0.0000000000000000        4.3704506725711303E-006
 chl          64   1.6314783795451234E-010   3.3683358188501370E-010  0.48435739999999999     
 chl2c          65  0.76379975000000000        3.7953597170552002E-002  0.76379975000000000        0.0000000000000000        9.3121393359713876E-016
 chl          65   2.5732087412536204E-010   3.3689572970580577E-010  0.76379975000000000     
 chl2c          66  0.35213202499999996        3.1840477731474713E-002  0.35213202499999996        0.0000000000000000        3.7164554225580956E-010
 chl          66   1.1860989127717317E-010   3.3683358188501370E-010  0.35213202499999996     
 chl2c          67  0.75736760000000003        3.7937587124568600E-002  0.75736760000000003        0.0000000000000000        8.0102017396450711E-006
 chl          67   2.5515391025683554E-010   3.3689572970488243E-010  0.75736760000000003     
 chl2c          68  0.72590779999999999        3.7855407263856986E-002  0.72590779999999999        0.0000000000000000        9.3841762804543993E-016
 chl          68   2.4455523798013612E-010   3.3689572970580577E-010  0.72590779999999999     
 chl2c          69  0.45524217500000003        2.1732330561541505E-002  0.45524217500000003        0.0000000000000000        5.3964182418528210E-016
 chl          69   1.5334085243037425E-010   3.3683358188501370E-010  0.45524217500000003     
 chl2c          70  0.48694062500000002        3.2658010878182209E-002  0.48694062500000002        0.0000000000000000        5.1017948409911494E-009
 chl          70   1.6401795488407726E-010   3.3683358188501370E-010  0.48694062500000002     
 chl2c          71  0.23986107500000001        4.3481058864416305E-002  0.23986107500000001        0.0000000000000000        5.4016196061761217E-020
 chl          71   8.0793265047039917E-011   3.3683358188501370E-010  0.23986107500000001     
 chl2c          72  0.62790522500000001        3.7549776402781669E-002  0.62790522500000001        0.0000000000000000        6.7166903584748081E-006
 chl          72   2.1153858896246317E-010   3.3689572970580577E-010  0.62790522500000001     
 chl2c          73  0.35362212500000001        3.1852614277819484E-002  0.35362212500000001        0.0000000000000000        3.2521830333901811E-010
 chl          73   1.1911180699754005E-010   3.3683358188501370E-010  0.35362212500000001     
 chl2c          74  0.64719590000000005        3.7616827685877569E-002  0.64719590000000005        0.0000000000000000        9.3433138257340951E-016
 chl          74   2.1803753499250813E-010   3.3689572970488243E-010  0.64719590000000005     
 chl2c          75  0.71554212500000003        3.7826830779512356E-002  0.71554212500000003        0.0000000000000000        6.7164065217076029E-006
 chl          75   2.4106308633711790E-010   3.3689572970580577E-010  0.71554212500000003     
 chl2c          76  0.55513977500000000        3.7257729557919804E-002  0.55513977500000000        0.0000000000000000        9.3441820468985542E-016
 chl          76   1.8702421958734182E-010   3.3689572970580577E-010  0.55513977500000000     
 chl2c          77  0.52973029999999999        3.7138172437479272E-002  0.52973029999999999        0.0000000000000000        9.2657737452016534E-016
 chl          77   1.7846387596528627E-010   3.3689572970488243E-010  0.52973029999999999     
 chl2c          78  0.45117492500000000        4.7515248899399322E-002  0.45117492500000000        0.0000000000000000        6.1709911010920061E-019
 chl          78   1.5197086604445242E-010   3.3683358188501370E-010  0.45117492500000000     
 prod   2.1918577041035016E-010   0.0000000000000000        10.000000000000000     
 dcdom   3.0089218728898982E-013  -9.5694966173057560E-016
 chl2c           1  0.60826437499999997        3.7477407714772232E-002  0.60826437499999997        0.0000000000000000        9.3573096002196460E-016
 chl           1   2.0488325559420689E-010   3.3683257480631986E-010  0.60826437499999997     
 chl2c           2  0.48302390000000001        3.2640259920490348E-002  0.48302390000000001        0.0000000000000000        4.4690720177775480E-020
 chl           2   1.6269818390721365E-010   3.3683257475916544E-010  0.48302390000000001     
 chl2c           3  0.75128689999999998        3.7922212503796585E-002  0.75128689999999998        0.0000000000000000        7.3531476099782275E-006
 chl           3   2.5305790094525812E-010   3.3683257480631986E-010  0.75128689999999998     
 chl2c           4  0.77318742499999993        3.7976509103863923E-002  0.77318742499999993        0.0000000000000000        9.3841762601398840E-016
 chl           4   2.6043471117061829E-010   3.3683257480631986E-010  0.77318742499999993     
 chl2c           5  0.48489679999999996        2.5710500362372445E-002  0.48489679999999996        0.0000000000000000        5.3956951445369104E-016
 chl           5   1.6332903763648009E-010   3.3683257475916544E-010  0.48489679999999996     
 chl2c           6  0.29222855000000003        3.1261039902252048E-002  0.29222855000000003        0.0000000000000000        6.4353144371123274E-019
 chl           6   9.8432094914637524E-011   3.3683257475916544E-010  0.29222855000000003     
 chl2c           7  0.22770740000000000        4.3064391842467263E-002  0.22770740000000000        0.0000000000000000        4.3608605982437522E-020
 chl           7   7.6699269833715186E-011   3.3683257475916544E-010  0.22770740000000000     
 chl2c           8  0.49578364999999996        4.7969800906495587E-002  0.49578364999999996        0.0000000000000000        4.6337023218334759E-020
 chl           8   1.6699608335299691E-010   3.3683257475916544E-010  0.49578364999999996     
 chl2c           9  0.28700202499999999        2.4803669054600401E-002  0.28700202499999999        0.0000000000000000        5.4184070760459005E-016
 chl           9   9.6671631041844371E-011   3.3683257475916544E-010  0.28700202499999999     
 chl2c          10  0.39094662499999999        2.5387016219684602E-002  0.39094662499999999        0.0000000000000000        5.4184857116272465E-016
 chl          10   1.3168355829215590E-010   3.3683257475916544E-010  0.39094662499999999     
 chl2c          11  0.49737575000000001        2.1820572217820047E-002  0.49737575000000001        0.0000000000000000        4.5799004520204071E-006
 chl          11   1.6753235449527097E-010   3.3683257475916544E-010  0.49737575000000001     
 chl2c          12  0.30768942500000002        4.5290941298723353E-002  0.30768942500000002        0.0000000000000000        1.7505517539443019E-010
 chl          12   1.0363982124891714E-010   3.3683257475916544E-010  0.30768942500000002     
 chl2c          13  0.75666275000000005        3.7935816987997487E-002  0.75666275000000005        0.0000000000000000        6.6762314075907680E-006
 chl          13   2.5486866234183206E-010   3.3683257480539652E-010  0.75666275000000005     
 chl2c          14  0.39804095000000000        4.6856526101924839E-002  0.39804095000000000        0.0000000000000000        1.2638693416287348E-009
 chl          14   1.3407315804808422E-010   3.3683257475916544E-010  0.39804095000000000     
 chl2c          15  0.25607262500000000        2.0954299823745293E-002  0.25607262500000000        0.0000000000000000        5.4323449673783901E-016
 chl          15   8.6253601604088234E-011   3.3683257475916544E-010  0.25607262500000000     
 chl2c          16  0.71433214999999994        3.7823443882273475E-002  0.71433214999999994        0.0000000000000000        4.6387994395215391E-006
 chl          16   2.4061033735143429E-010   3.3683257480631986E-010  0.71433214999999994     
 chl2c          17  0.62580860000000005        3.7542254757581245E-002  0.62580860000000005        0.0000000000000000        8.0532653428446751E-006
 chl          17   2.1079272207393833E-010   3.3683257480631986E-010  0.62580860000000005     
 chl2c          18  0.47925950000000000        2.5694475239060960E-002  0.47925950000000000        0.0000000000000000        2.0206829838265743E-006
 chl          18   1.6143021136279025E-010   3.3683257475916544E-010  0.47925950000000000     
 chl2c          19  0.63367130000000005        3.7570220750293731E-002  0.63367130000000005        0.0000000000000000        9.2840765295999531E-016
 chl          19   2.1344113555986797E-010   3.3683257480631986E-010  0.63367130000000005     
 chl2c          20  0.50678202500000002        3.7020645196759419E-002  0.50678202500000002        0.0000000000000000        7.4097092602640927E-006
 chl          20   1.7070069434584283E-010   3.3683257480539652E-010  0.50678202500000002     
 chl2c          21  0.71973185000000006        3.7838475073783531E-002  0.71973185000000006        0.0000000000000000        9.3329238592925842E-016
 chl          21   2.4242913220495142E-010   3.3683257480539652E-010  0.71973185000000006     
 chl2c          22  0.64616892500000001        3.7613353106285476E-002  0.64616892500000001        0.0000000000000000        9.3808852734208059E-016
 chl          22   2.1765074276758178E-010   3.3683257480631986E-010  0.64616892500000001     
 chl2c          23  0.41564179999999995        3.2286562315070731E-002  0.41564179999999995        0.0000000000000000        6.3794835262572168E-020
 chl          23   1.4000169767153407E-010   3.3683257475916544E-010  0.41564179999999995     
 chl2c          24  0.57597492500000003        3.7348402796863071E-002  0.57597492500000003        0.0000000000000000        6.3264356766368048E-006
 chl          24   1.9400711701109515E-010   3.3683257480539652E-010  0.57597492500000003     
 chl2c          25  0.31406487500000002        4.5426679235459781E-002  0.31406487500000002        0.0000000000000000        4.8589544571531591E-020
 chl          25   1.0578728048766545E-010   3.3683257475916544E-010  0.31406487500000002     
 chl2c          26  0.49427735000000000        4.7955660680174553E-002  0.49427735000000000        0.0000000000000000        3.7842742546758779E-010
 chl          26   1.6648871244563719E-010   3.3683257475916544E-010  0.49427735000000000     
 chl2c          27  0.30964730000000001        4.5333133499525620E-002  0.30964730000000001        0.0000000000000000        4.1715578180682134E-009
 chl          27   1.0429929732622373E-010   3.3683257475916544E-010  0.30964730000000001     
 chl2c          28  0.28776342500000002        3.1209236063453518E-002  0.28776342500000002        0.0000000000000000        4.1235632080334573E-009
 chl          28   9.6928095364266005E-011   3.3683257475916544E-010  0.28776342500000002     
 chl2c          29  0.68676297499999994        3.7743217595736761E-002  0.68676297499999994        0.0000000000000000        9.3416903043260869E-016
 chl          29   2.3132414115026415E-010   3.3683257480539652E-010  0.68676297499999994     
 chl2c          30  0.38930277499999999        2.5380056985171612E-002  0.38930277499999999        0.0000000000000000        4.6645651142950703E-006
 chl          30   1.3112985606413807E-010   3.3683257475916544E-010  0.38930277499999999     
 chl2c          31  0.63559385000000002        3.7576959810037038E-002  0.63559385000000002        0.0000000000000000        9.3635891828492458E-016
 chl          31   2.1408871302597498E-010   3.3683257480539652E-010  0.63559385000000002     
 chl2c          32  0.24722667500000001        2.0893126428578448E-002  0.24722667500000001        0.0000000000000000        5.4365799896991264E-016
 chl          32   8.3273997489397403E-011   3.3683257475916544E-010  0.24722667500000001     
 chl2c          33  0.60343137499999999        3.7458922634011876E-002  0.60343137499999999        0.0000000000000000        9.2987482400917372E-016
 chl          33   2.0325534375961077E-010   3.3683257480539652E-010  0.60343137499999999     
 chl2c          34  0.38241020000000003        2.5350269098008315E-002  0.38241020000000003        0.0000000000000000        5.3925601862438962E-016
 chl          34   1.2880821228016741E-010   3.3683257475916544E-010  0.38241020000000003     
 chl2c          35  0.49574644999999995        2.5740370148566064E-002  0.49574644999999995        0.0000000000000000        4.1662006846432728E-006
 chl          35   1.6698355318121586E-010   3.3683257475916544E-010  0.49574644999999995     
 chl2c          36  0.69587337500000002        3.7770393924465726E-002  0.69587337500000002        0.0000000000000000        6.4219357327368144E-006
 chl          36   2.3439282064041378E-010   3.3683257480631986E-010  0.69587337500000002     
 chl2c          37  0.33194060000000003        2.1353674699533250E-002  0.33194060000000003        0.0000000000000000        9.1431323583647153E-007
 chl          37   1.1180840696510224E-010   3.3683257475916544E-010  0.33194060000000003     
 chl2c          38  0.38455722500000000        2.1543295686358745E-002  0.38455722500000000        0.0000000000000000        3.7942080826120007E-006
 chl          38   1.2953140023898972E-010   3.3683257475916544E-010  0.38455722500000000     
 chl2c          39  0.47091117500000002        2.5670077108751441E-002  0.47091117500000002        0.0000000000000000        2.8085475465393687E-006
 chl          39   1.5861822355811394E-010   3.3683257475916544E-010  0.47091117500000002     
 chl2c          40  0.66875547499999999        3.7687445774703773E-002  0.66875547499999999        0.0000000000000000        4.6586173559647723E-006
 chl          40   2.2525862856007346E-010   3.3683257480631986E-010  0.66875547499999999     
 chl2c          41  0.44304987499999998        2.5582381488167241E-002  0.44304987499999998        0.0000000000000000        5.3742548684664653E-016
 chl          41   1.4923363014297641E-010   3.3683257475916544E-010  0.44304987499999998     
 chl2c          42  0.76234377499999995        3.7949995630725070E-002  0.76234377499999995        0.0000000000000000        3.7002562399659595E-006
 chl          42   2.5678221662011585E-010   3.3683257480539652E-010  0.76234377499999995     
 chl2c          43  0.29539925000000000        2.1185090152268007E-002  0.29539925000000000        0.0000000000000000        5.4366008014664838E-016
 chl          43   9.9500089959426409E-011   3.3683257475916544E-010  0.29539925000000000     
 chl2c          44  0.62417262500000004        3.7536352708156646E-002  0.62417262500000004        0.0000000000000000        7.5523732653920380E-006
 chl          44   2.1024167240179321E-010   3.3683257480539652E-010  0.62417262500000004     
 chl2c          45  0.37662252499999999        4.6544927192009838E-002  0.37662252499999999        0.0000000000000000        5.8737204510735135E-020
 chl          45   1.2685873480804815E-010   3.3683257475916544E-010  0.37662252499999999     
 chl2c          46  0.51876034999999998        3.7083195475449568E-002  0.51876034999999998        0.0000000000000000        9.3633199389581247E-016
 chl          46   1.7473538439744868E-010   3.3683257480539652E-010  0.51876034999999998     
 chl2c          47  0.61962282499999999        3.7519784612651236E-002  0.61962282499999999        0.0000000000000000        8.0414655324805488E-006
 chl          47   2.0870915155294362E-010   3.3683257480539652E-010  0.61962282499999999     
 chl2c          48  0.71424949999999998        3.7823212136301673E-002  0.71424949999999998        0.0000000000000000        5.6003254759125592E-006
 chl          48   2.4058249813846703E-010   3.3683257480539652E-010  0.71424949999999998     
 chl2c          49  0.53276120000000005        3.7152990741888416E-002  0.53276120000000005        0.0000000000000000        8.0118089810517456E-006
 chl          49   1.7945132675241283E-010   3.3683257480539652E-010  0.53276120000000005     
 chl2c          50  0.38132569999999999        2.1533072915600981E-002  0.38132569999999999        0.0000000000000000        5.4081536779325552E-016
 chl          50   1.2844291735284110E-010   3.3683257475916544E-010  0.38132569999999999     
 chl2c          51  0.22275920000000002        2.0700971146093840E-002  0.22275920000000002        0.0000000000000000        3.9520874953628595E-006
 chl          51   7.5032554887291892E-011   3.3683257475916544E-010  0.22275920000000002     
 chl2c          52  0.63698869999999996        3.7581825176985564E-002  0.63698869999999996        0.0000000000000000        6.0449903687623503E-006
 chl          52   2.1455854394353042E-010   3.3683257480631986E-010  0.63698869999999996     
 chl2c          53  0.75269794999999995        3.7925801262726190E-002  0.75269794999999995        0.0000000000000000        2.8829687260739964E-006
 chl          53   2.5353318854993858E-010   3.3683257480631986E-010  0.75269794999999995     
 chl2c          54  0.51861124999999997        3.7082433371327092E-002  0.51861124999999997        0.0000000000000000        7.9712492106283625E-006
 chl          54   1.7468516266054519E-010   3.3683257480539652E-010  0.51861124999999997     
 chl2c          55  0.57808280000000001        3.7357235588660491E-002  0.57808280000000001        0.0000000000000000        9.3785047470232527E-016
 chl          55   1.9471711797471307E-010   3.3683257480539652E-010  0.57808280000000001     
 chl2c          56  0.61626080000000005        3.7507394187257688E-002  0.61626080000000005        0.0000000000000000        5.7960063141927812E-006
 chl          56   2.0757671201620254E-010   3.3683257480631986E-010  0.61626080000000005     
 chl2c          57  0.68163462500000005        3.7727617852646313E-002  0.68163462500000005        0.0000000000000000        9.3832777874910367E-016
 chl          57   2.2959674581526093E-010   3.3683257480539652E-010  0.68163462500000005     
 chl2c          58  0.69416802499999997        3.7765358178394853E-002  0.69416802499999997        0.0000000000000000        9.3738677829252597E-016
 chl          58   2.3381840320896781E-010   3.3683257480631986E-010  0.69416802499999997     
 chl2c          59  0.53705127500000005        3.7173699120809672E-002  0.53705127500000005        0.0000000000000000        9.3909834328183385E-016
 chl          59   1.8089636376077108E-010   3.3683257480539652E-010  0.53705127500000005     
 chl2c          60  0.64452155000000000        3.7607757740906807E-002  0.64452155000000000        0.0000000000000000        9.2749795366796631E-016
 chl          60   2.1709585320406510E-010   3.3683257480539652E-010  0.64452155000000000     
 chl2c          61  0.70794139999999994        3.7805373434125003E-002  0.70794139999999994        0.0000000000000000        7.3485730635615350E-006
 chl          61   2.3845772457333711E-010   3.3683257480539652E-010  0.70794139999999994     
 chl2c          62  0.76481592499999995        3.7956103087269030E-002  0.76481592499999995        0.0000000000000000        5.3986120617514621E-006
 chl          62   2.5761491726992099E-010   3.3683257480539652E-010  0.76481592499999995     
 chl2c          63  0.72597904999999996        3.7855601011927406E-002  0.72597904999999996        0.0000000000000000        9.2795625972025205E-016
 chl          63   2.4453339266694598E-010   3.3683257480631986E-010  0.72597904999999996     
 chl2c          64  0.48435739999999999        2.5708982294816416E-002  0.48435739999999999        0.0000000000000000        4.3704514586082779E-006
 chl          64   1.6314735014565499E-010   3.3683257475916544E-010  0.48435739999999999     
 chl2c          65  0.76379975000000000        3.7953597170552002E-002  0.76379975000000000        0.0000000000000000        9.3121393359713876E-016
 chl          65   2.5727263642892342E-010   3.3683257480631986E-010  0.76379975000000000     
 chl2c          66  0.35213202499999996        3.1840477731474713E-002  0.35213202499999996        0.0000000000000000        3.7164515953131869E-010
 chl          66   1.1860953663590880E-010   3.3683257475916544E-010  0.35213202499999996     
 chl2c          67  0.75736760000000003        3.7937587124568600E-002  0.75736760000000003        0.0000000000000000        8.0101993688397284E-006
 chl          67   2.5510607878218362E-010   3.3683257480539652E-010  0.75736760000000003     
 chl2c          68  0.72590779999999999        3.7855407263856986E-002  0.72590779999999999        0.0000000000000000        9.3841762601398840E-016
 chl          68   2.4450939334599106E-010   3.3683257480631986E-010  0.72590779999999999     
 chl2c          69  0.45524217500000003        2.1732330561541505E-002  0.45524217500000003        0.0000000000000000        5.3964182418528210E-016
 chl          69   1.5334039394421258E-010   3.3683257475916544E-010  0.45524217500000003     
 chl2c          70  0.48694062500000002        3.2658010878182209E-002  0.48694062500000002        0.0000000000000000        5.1017839846011426E-009
 chl          70   1.6401746447358724E-010   3.3683257475916544E-010  0.48694062500000002     
 chl2c          71  0.23986107500000001        4.3481058864416305E-002  0.23986107500000001        0.0000000000000000        5.4016112007165290E-020
 chl          71   8.0793023476751291E-011   3.3683257475916544E-010  0.23986107500000001     
 chl2c          72  0.62790522500000001        3.7549776402781669E-002  0.62790522500000001        0.0000000000000000        6.7166821278044031E-006
 chl          72   2.1149893367109160E-010   3.3683257480631986E-010  0.62790522500000001     
 chl2c          73  0.35362212500000001        3.1852614277819484E-002  0.35362212500000001        0.0000000000000000        3.2521855659428828E-010
 chl          73   1.1911145085555744E-010   3.3683257475916544E-010  0.35362212500000001     
 chl2c          74  0.64719590000000005        3.7616827685877569E-002  0.64719590000000005        0.0000000000000000        9.3433138257340951E-016
 chl          74   2.1799666140049594E-010   3.3683257480539652E-010  0.64719590000000005     
 chl2c          75  0.71554212500000003        3.7826830779512356E-002  0.71554212500000003        0.0000000000000000        6.7164103611408137E-006
 chl          75   2.4101789634613557E-010   3.3683257480631986E-010  0.71554212500000003     
 chl2c          76  0.55513977500000000        3.7257729557919804E-002  0.55513977500000000        0.0000000000000000        9.3441820468985542E-016
 chl          76   1.8698915979065108E-010   3.3683257480631986E-010  0.55513977500000000     
 chl2c          77  0.52973029999999999        3.7138172437479272E-002  0.52973029999999999        0.0000000000000000        9.2657737452016534E-016
 chl          77   1.7843042090143512E-010   3.3683257480539652E-010  0.52973029999999999     
 chl2c          78  0.45117492500000000        4.7515248899399322E-002  0.45117492500000000        0.0000000000000000        6.1709803479136938E-019
 chl          78   1.5197041165452336E-010   3.3683257475916544E-010  0.45117492500000000     
 prod   2.1918542930196933E-010   0.0000000000000000        10.000000000000000     
 dcdom   3.0037049794463646E-013  -9.5694695539017164E-016
 chl2c           1  0.60826437499999997        3.7477407714772232E-002  0.60826437499999997        0.0000000000000000        9.3244002788784920E-016
 chl           1   1.0807847074070197E-014   1.7768338108031064E-014  0.60826437499999997     
 chl2c           2  0.48302390000000001        3.2640259920490348E-002  0.48302390000000001        0.0000000000000000        1.0350309211040234E-020
 chl           2   7.3216556693464963E-017   1.5157957337818059E-016  0.48302390000000001     
 chl2c           3  0.75128689999999998        3.7922212503796585E-002  0.75128689999999998        0.0000000000000000        7.3792148021612350E-006
 chl           3   1.3349119655334522E-014   1.7768338108031064E-014  0.75128689999999998     
 chl2c           4  0.77318742499999993        3.7976509103863923E-002  0.77318742499999993        0.0000000000000000        9.3244002788784920E-016
 chl           4   1.3738255588277909E-014   1.7768338108031064E-014  0.77318742499999993     
 chl2c           5  0.48489679999999996        2.5710500362372445E-002  0.48489679999999996        0.0000000000000000        5.3956951445363503E-016
 chl           5   7.3500450076444952E-017   1.5157957337818059E-016  0.48489679999999996     
 chl2c           6  0.29222855000000003        3.1261039902252048E-002  0.29222855000000003        0.0000000000000000        1.4030624179072784E-019
 chl           6   4.4295878937924321E-017   1.5157957337818059E-016  0.29222855000000003     
 chl2c           7  0.22770740000000000        4.3064391842467263E-002  0.22770740000000000        0.0000000000000000        1.0099677816195673E-020
 chl           7   3.4515790547054716E-017   1.5157957337818059E-016  0.22770740000000000     
 chl2c           8  0.49578364999999996        4.7969800906495587E-002  0.49578364999999996        0.0000000000000000        1.0731615360481934E-020
 chl           8   7.5150674154877190E-017   1.5157957337818059E-016  0.49578364999999996     
 chl2c           9  0.28700202499999999        2.4803669054600401E-002  0.28700202499999999        0.0000000000000000        5.4184070760454469E-016
 chl           9   4.3503644508173916E-017   1.5157957337818059E-016  0.28700202499999999     
 chl2c          10  0.39094662499999999        2.5387016219684602E-002  0.39094662499999999        0.0000000000000000        5.4184857116267939E-016
 chl          10   5.9259522631139547E-017   1.5157957337818059E-016  0.39094662499999999     
 chl2c          11  0.49737575000000001        2.1820572217820047E-002  0.49737575000000001        0.0000000000000000        4.5421923732829468E-006
 chl          11   7.5392003993652608E-017   1.5157957337818059E-016  0.49737575000000001     
 chl2c          12  0.30768942500000002        4.5290941298723353E-002  0.30768942500000002        0.0000000000000000        2.9466040995053833E-011
 chl          12   4.6639431774477694E-017   1.5157957337818059E-016  0.30768942500000002     
 chl2c          13  0.75666275000000005        3.7935816987997487E-002  0.75666275000000005        0.0000000000000000        6.1927231057732575E-006
 chl          13   1.3444639575752426E-014   1.7768338108030856E-014  0.75666275000000005     
 chl2c          14  0.39804095000000000        4.6856526101924839E-002  0.39804095000000000        0.0000000000000000        3.7150053058177871E-010
 chl          14   6.0334877388045706E-017   1.5157957337818059E-016  0.39804095000000000     
 chl2c          15  0.25607262500000000        2.0954299823745293E-002  0.25607262500000000        0.0000000000000000        5.4323449673780055E-016
 chl          15   3.8815379251330820E-017   1.5157957337818059E-016  0.25607262500000000     
 chl2c          16  0.71433214999999994        3.7823443882273475E-002  0.71433214999999994        0.0000000000000000        3.9126583583824555E-006
 chl          16   1.2692495162636761E-014   1.7768338108031064E-014  0.71433214999999994     
 chl2c          17  0.62580860000000005        3.7542254757581245E-002  0.62580860000000005        0.0000000000000000        7.8712422054046258E-006
 chl          17   1.1119578795713569E-014   1.7768338108031064E-014  0.62580860000000005     
 chl2c          18  0.47925950000000000        2.5694475239060960E-002  0.47925950000000000        0.0000000000000000        2.4706922122257542E-006
 chl          18   7.2645950547440141E-017   1.5157957337818059E-016  0.47925950000000000     
 chl2c          19  0.63367130000000005        3.7570220750293731E-002  0.63367130000000005        0.0000000000000000        9.2840765295982294E-016
 chl          19   1.1259285907755585E-014   1.7768338108031064E-014  0.63367130000000005     
 chl2c          20  0.50678202500000002        3.7020645196759419E-002  0.50678202500000002        0.0000000000000000        7.0600301441774308E-006
 chl          20   9.0046743672725454E-015   1.7768338108030856E-014  0.50678202500000002     
 chl2c          21  0.71973185000000006        3.7838475073783531E-002  0.71973185000000006        0.0000000000000000        9.3329238592910873E-016
 chl          21   1.2788438857918548E-014   1.7768338108030856E-014  0.71973185000000006     
 chl2c          22  0.64616892500000001        3.7613353106285476E-002  0.64616892500000001        0.0000000000000000        9.3244002788784920E-016
 chl          22   1.1481347934302967E-014   1.7768338108031064E-014  0.64616892500000001     
 chl2c          23  0.41564179999999995        3.2286562315070731E-002  0.41564179999999995        0.0000000000000000        1.4775189504840848E-020
 chl          23   6.3002806722139058E-017   1.5157957337818059E-016  0.41564179999999995     
 chl2c          24  0.57597492500000003        3.7348402796863071E-002  0.57597492500000003        0.0000000000000000        6.5729455653654526E-006
 chl          24   1.0234117209147714E-014   1.7768338108030856E-014  0.57597492500000003     
 chl2c          25  0.31406487500000002        4.5426679235459781E-002  0.31406487500000002        0.0000000000000000        1.1253332742812797E-020
 chl          25   4.7605819765571616E-017   1.5157957337818059E-016  0.31406487500000002     
 chl2c          26  0.49427735000000000        4.7955660680174553E-002  0.49427735000000000        0.0000000000000000        8.6098547739196810E-011
 chl          26   7.4922349843497652E-017   1.5157957337818059E-016  0.49427735000000000     
 chl2c          27  0.30964730000000001        4.5333133499525620E-002  0.30964730000000001        0.0000000000000000        8.9426875597542926E-010
 chl          27   4.6936205631705500E-017   1.5157957337818059E-016  0.30964730000000001     
 chl2c          28  0.28776342500000002        3.1209236063453518E-002  0.28776342500000002        0.0000000000000000        8.7810587939489260E-010
 chl          28   4.3619057195344067E-017   1.5157957337818059E-016  0.28776342500000002     
 chl2c          29  0.68676297499999994        3.7743217595736761E-002  0.68676297499999994        0.0000000000000000        9.3416903043246314E-016
 chl          29   1.2202636739877141E-014   1.7768338108030856E-014  0.68676297499999994     
 chl2c          30  0.38930277499999999        2.5380056985171612E-002  0.38930277499999999        0.0000000000000000        4.5882852994679466E-006
 chl          30   5.9010348549441823E-017   1.5157957337818059E-016  0.38930277499999999     
 chl2c          31  0.63559385000000002        3.7576959810037038E-002  0.63559385000000002        0.0000000000000000        9.3635891828478929E-016
 chl          31   1.1293446426185048E-014   1.7768338108030856E-014  0.63559385000000002     
 chl2c          32  0.24722667500000001        2.0893126428578448E-002  0.24722667500000001        0.0000000000000000        5.4365799896987595E-016
 chl          32   3.7474513924206104E-017   1.5157957337818059E-016  0.24722667500000001     
 chl2c          33  0.60343137499999999        3.7458922634011876E-002  0.60343137499999999        0.0000000000000000        9.2987482400900826E-016
 chl          33   1.0721972695993958E-014   1.7768338108030856E-014  0.60343137499999999     
 chl2c          34  0.38241020000000003        2.5350269098008315E-002  0.38241020000000003        0.0000000000000000        5.3925601862433203E-016
 chl          34   5.7965574971464723E-017   1.5157957337818059E-016  0.38241020000000003     
 chl2c          35  0.49574644999999995        2.5740370148566064E-002  0.49574644999999995        0.0000000000000000        4.2585753647169899E-006
 chl          35   7.5145035394747530E-017   1.5157957337818059E-016  0.49574644999999995     
 chl2c          36  0.69587337500000002        3.7770393924465726E-002  0.69587337500000002        0.0000000000000000        6.6561172726332305E-006
 chl          36   1.2364513407376691E-014   1.7768338108031064E-014  0.69587337500000002     
 chl2c          37  0.33194060000000003        2.1353674699533250E-002  0.33194060000000003        0.0000000000000000        1.4073947831729805E-006
 chl          37   5.0315414534897295E-017   1.5157957337818059E-016  0.33194060000000003     
 chl2c          38  0.38455722500000000        2.1543295686358745E-002  0.38455722500000000        0.0000000000000000        3.9852068987256512E-006
 chl          38   5.8291020104997000E-017   1.5157957337818059E-016  0.38455722500000000     
 chl2c          39  0.47091117500000002        2.5670077108751441E-002  0.47091117500000002        0.0000000000000000        3.1703161109486961E-006
 chl          39   7.1380515005517744E-017   1.5157957337818059E-016  0.47091117500000002     
 chl2c          40  0.66875547499999999        3.7687445774703773E-002  0.66875547499999999        0.0000000000000000        3.9334892997602323E-006
 chl          40   1.1882673391396915E-014   1.7768338108031064E-014  0.66875547499999999     
 chl2c          41  0.44304987499999998        2.5582381488167241E-002  0.44304987499999998        0.0000000000000000        5.3742548684658036E-016
 chl          41   6.7157311037756228E-017   1.5157957337818059E-016  0.44304987499999998     
 chl2c          42  0.76234377499999995        3.7949995630725070E-002  0.76234377499999995        0.0000000000000000        2.9652331522338323E-006
 chl          42   1.3545581948752599E-014   1.7768338108030856E-014  0.76234377499999995     
 chl2c          43  0.29539925000000000        2.1185090152268007E-002  0.29539925000000000        0.0000000000000000        5.4366008014661180E-016
 chl          43   4.4776492291234513E-017   1.5157957337818059E-016  0.29539925000000000     
 chl2c          44  0.62417262500000004        3.7536352708156646E-002  0.62417262500000004        0.0000000000000000        7.2537143860116831E-006
 chl          44   1.1090510238777153E-014   1.7768338108030856E-014  0.62417262500000004     
 chl2c          45  0.37662252499999999        4.6544927192009838E-002  0.37662252499999999        0.0000000000000000        1.3603722056200303E-020
 chl          45   5.7088281664113144E-017   1.5157957337818059E-016  0.37662252499999999     
 chl2c          46  0.51876034999999998        3.7083195475449568E-002  0.51876034999999998        0.0000000000000000        9.3633199389567698E-016
 chl          46   9.2175092958404243E-015   1.7768338108030856E-014  0.51876034999999998     
 chl2c          47  0.61962282499999999        3.7519784612651236E-002  0.61962282499999999        0.0000000000000000        7.9082026726299802E-006
 chl          47   1.1009667854053234E-014   1.7768338108030856E-014  0.61962282499999999     
 chl2c          48  0.71424949999999998        3.7823212136301673E-002  0.71424949999999998        0.0000000000000000        4.9764698646892405E-006
 chl          48   1.2691026609491984E-014   1.7768338108030856E-014  0.71424949999999998     
 chl2c          49  0.53276120000000005        3.7152990741888416E-002  0.53276120000000005        0.0000000000000000        7.8790164580638651E-006
 chl          49   9.4662811324402484E-015   1.7768338108030856E-014  0.53276120000000005     
 chl2c          50  0.38132569999999999        2.1533072915600981E-002  0.38132569999999999        0.0000000000000000        5.4081536779320523E-016
 chl          50   5.7801186924136081E-017   1.5157957337818059E-016  0.38132569999999999     
 chl2c          51  0.22275920000000002        2.0700971146093840E-002  0.22275920000000002        0.0000000000000000        4.1079685804744836E-006
 chl          51   3.3765744502064809E-017   1.5157957337818059E-016  0.22275920000000002     
 chl2c          52  0.63698869999999996        3.7581825176985564E-002  0.63698869999999996        0.0000000000000000        5.4305382392171693E-006
 chl          52   1.1318230592595167E-014   1.7768338108031064E-014  0.63698869999999996     
 chl2c          53  0.75269794999999995        3.7925801262726190E-002  0.75269794999999995        0.0000000000000000        2.1323683202097749E-006
 chl          53   1.3374191668821860E-014   1.7768338108031064E-014  0.75269794999999995     
 chl2c          54  0.51861124999999997        3.7082433371327092E-002  0.51861124999999997        0.0000000000000000        7.8390814628949444E-006
 chl          54   9.2148600366285158E-015   1.7768338108030856E-014  0.51861124999999997     
 chl2c          55  0.57808280000000001        3.7357235588660491E-002  0.57808280000000001        0.0000000000000000        9.3785047470219688E-016
 chl          55   1.0271570644837180E-014   1.7768338108030856E-014  0.57808280000000001     
 chl2c          56  0.61626080000000005        3.7507394187257688E-002  0.61626080000000005        0.0000000000000000        6.0948000449780793E-006
 chl          56   1.0949930257125711E-014   1.7768338108031064E-014  0.61626080000000005     
 chl2c          57  0.68163462500000005        3.7727617852646313E-002  0.68163462500000005        0.0000000000000000        9.3832777874897745E-016
 chl          57   1.2111514483140823E-014   1.7768338108030856E-014  0.68163462500000005     
 chl2c          58  0.69416802499999997        3.7765358178394853E-002  0.69416802499999997        0.0000000000000000        9.3244002788784920E-016
 chl          58   1.2334212171984159E-014   1.7768338108031064E-014  0.69416802499999997     
 chl2c          59  0.53705127500000005        3.7173699120809672E-002  0.53705127500000005        0.0000000000000000        9.3909834328171138E-016
 chl          59   9.5425086355490598E-015   1.7768338108030856E-014  0.53705127500000005     
 chl2c          60  0.64452155000000000        3.7607757740906807E-002  0.64452155000000000        0.0000000000000000        9.2749795366779000E-016
 chl          60   1.1452076818312115E-014   1.7768338108030856E-014  0.64452155000000000     
 chl2c          61  0.70794139999999994        3.7805373434125003E-002  0.70794139999999994        0.0000000000000000        7.4132945609816591E-006
 chl          61   1.2578942155872714E-014   1.7768338108030856E-014  0.70794139999999994     
 chl2c          62  0.76481592499999995        3.7956103087269030E-002  0.76481592499999995        0.0000000000000000        4.7656107494844178E-006
 chl          62   1.3589507945806367E-014   1.7768338108030856E-014  0.76481592499999995     
 chl2c          63  0.72597904999999996        3.7855601011927406E-002  0.72597904999999996        0.0000000000000000        9.2795625972007791E-016
 chl          63   1.2899441219747188E-014   1.7768338108031064E-014  0.72597904999999996     
 chl2c          64  0.48435739999999999        2.5708982294816416E-002  0.48435739999999999        0.0000000000000000        4.3942806782140097E-006
 chl          64   7.3418688054564762E-017   1.5157957337818059E-016  0.48435739999999999     
 chl2c          65  0.76379975000000000        3.7953597170552002E-002  0.76379975000000000        0.0000000000000000        9.3121393359697960E-016
 chl          65   1.3571452204829600E-014   1.7768338108031064E-014  0.76379975000000000     
 chl2c          66  0.35213202499999996        3.1840477731474713E-002  0.35213202499999996        0.0000000000000000        8.8047879950391109E-011
 chl          66   5.3376022122294815E-017   1.5157957337818059E-016  0.35213202499999996     
 chl2c          67  0.75736760000000003        3.7937587124568600E-002  0.75736760000000003        0.0000000000000000        7.8774062874319959E-006
 chl          67   1.3457163588867871E-014   1.7768338108030856E-014  0.75736760000000003     
 chl2c          68  0.72590779999999999        3.7855407263856986E-002  0.72590779999999999        0.0000000000000000        9.3244002788784920E-016
 chl          68   1.2898175225656992E-014   1.7768338108031064E-014  0.72590779999999999     
 chl2c          69  0.45524217500000003        2.1732330561541505E-002  0.45524217500000003        0.0000000000000000        5.3964182418522619E-016
 chl          69   6.9005414670255031E-017   1.5157957337818059E-016  0.45524217500000003     
 chl2c          70  0.48694062500000002        3.2658010878182209E-002  0.48694062500000002        0.0000000000000000        1.0862149288216772E-009
 chl          70   7.3810252198004621E-017   1.5157957337818059E-016  0.48694062500000002     
 chl2c          71  0.23986107500000001        4.3481058864416305E-002  0.23986107500000001        0.0000000000000000        1.2510219771552460E-020
 chl          71   3.6358039418531775E-017   1.5157957337818059E-016  0.23986107500000001     
 chl2c          72  0.62790522500000001        3.7549776402781669E-002  0.62790522500000001        0.0000000000000000        6.1896772346347542E-006
 chl          72   1.1156832337599320E-014   1.7768338108031064E-014  0.62790522500000001     
 chl2c          73  0.35362212500000001        3.1852614277819484E-002  0.35362212500000001        0.0000000000000000        8.4358767600013383E-011
 chl          73   5.3601890844585648E-017   1.5157957337818059E-016  0.35362212500000001     
 chl2c          74  0.64719590000000005        3.7616827685877569E-002  0.64719590000000005        0.0000000000000000        9.3433138257326475E-016
 chl          74   1.1499595573331328E-014   1.7768338108030856E-014  0.64719590000000005     
 chl2c          75  0.71554212500000003        3.7826830779512356E-002  0.71554212500000003        0.0000000000000000        6.9012476999918430E-006
 chl          75   1.2713994407539027E-014   1.7768338108031064E-014  0.71554212500000003     
 chl2c          76  0.55513977500000000        3.7257729557919804E-002  0.55513977500000000        0.0000000000000000        9.3244002788784920E-016
 chl          76   9.8639112194162898E-015   1.7768338108031064E-014  0.55513977500000000     
 chl2c          77  0.52973029999999999        3.7138172437479272E-002  0.52973029999999999        0.0000000000000000        9.2657737451998488E-016
 chl          77   9.4124270764686179E-015   1.7768338108030856E-014  0.52973029999999999     
 chl2c          78  0.45117492500000000        4.7515248899399322E-002  0.45117492500000000        0.0000000000000000        1.3453891090315959E-019
 chl          78   6.8388902650432620E-017   1.5157957337818059E-016  0.45117492500000000     
 prod   5.0759880432441833E-011   0.0000000000000000        10.000000000000000     
 dcdom   7.0253221802477652E-014  -1.4598623046859294E-017
 chl2c           1  0.60826437499999997        3.7477407714772232E-002  0.60826437499999997        0.0000000000000000        9.3488744170046675E-016
 chl           1   4.8531996248972138E-021   7.9787668394967466E-021  0.60826437499999997     
 chl2c           2  0.48302390000000001        3.2640259920490348E-002  0.48302390000000001        0.0000000000000000        3.8148449962261731E-021
 chl           2   2.4744767666497516E-023   5.1228868108798582E-023  0.48302390000000001     
 chl2c           3  0.75128689999999998        3.7922212503796585E-002  0.75128689999999998        0.0000000000000000        7.4226763924706369E-006
 chl           3   5.9943430046683083E-021   7.9787668394967466E-021  0.75128689999999998     
 chl2c           4  0.77318742499999993        3.7976509103863923E-002  0.77318742499999993        0.0000000000000000        9.3488744170046675E-016
 chl           4   6.1690821873058771E-021   7.9787668394967466E-021  0.77318742499999993     
 chl2c           5  0.48489679999999996        2.5710500362372445E-002  0.48489679999999996        0.0000000000000000        5.3956951445363503E-016
 chl           5   2.4840714213578481E-023   5.1228868108798582E-023  0.48489679999999996     
 chl2c           6  0.29222855000000003        3.1261039902252048E-002  0.29222855000000003        0.0000000000000000        5.4491893107822557E-020
 chl           6   1.4970537845575453E-023   5.1228868108798582E-023  0.29222855000000003     
 chl2c           7  0.22770740000000000        4.3064391842467263E-002  0.22770740000000000        0.0000000000000000        3.7224679506414487E-021
 chl           7   1.1665192361997442E-023   5.1228868108798582E-023  0.22770740000000000     
 chl2c           8  0.49578364999999996        4.7969800906495587E-002  0.49578364999999996        0.0000000000000000        3.9553858932382641E-021
 chl           8   2.5398435216348758E-023   5.1228868108798582E-023  0.49578364999999996     
 chl2c           9  0.28700202499999999        2.4803669054600401E-002  0.28700202499999999        0.0000000000000000        5.4184070760454469E-016
 chl           9   1.4702788885683113E-023   5.1228868108798582E-023  0.28700202499999999     
 chl2c          10  0.39094662499999999        2.5387016219684602E-002  0.39094662499999999        0.0000000000000000        5.4184857116267939E-016
 chl          10   2.0027753089704939E-023   5.1228868108798582E-023  0.39094662499999999     
 chl2c          11  0.49737575000000001        2.1820572217820047E-002  0.49737575000000001        0.0000000000000000        4.4806826469362891E-006
 chl          11   2.5479996697264777E-023   5.1228868108798582E-023  0.49737575000000001     
 chl2c          12  0.30768942500000002        4.5290941298723353E-002  0.30768942500000002        0.0000000000000000        6.3961124293607315E-012
 chl          12   1.5762580971797075E-023   5.1228868108798582E-023  0.30768942500000002     
 chl2c          13  0.75666275000000005        3.7935816987997487E-002  0.75666275000000005        0.0000000000000000        5.6025665051053737E-006
 chl          13   6.0372356583823823E-021   7.9787668394966999E-021  0.75666275000000005     
 chl2c          14  0.39804095000000000        4.6856526101924839E-002  0.39804095000000000        0.0000000000000000        1.8224468551766006E-010
 chl          14   2.0391187329450890E-023   5.1228868108798582E-023  0.39804095000000000     
 chl2c          15  0.25607262500000000        2.0954299823745293E-002  0.25607262500000000        0.0000000000000000        5.4323449673780055E-016
 chl          15   1.3118310732398838E-023   5.1228868108798582E-023  0.25607262500000000     
 chl2c          16  0.71433214999999994        3.7823443882273475E-002  0.71433214999999994        0.0000000000000000        3.1287627152017929E-006
 chl          16   5.6994896708064158E-021   7.9787668394967466E-021  0.71433214999999994     
 chl2c          17  0.62580860000000005        3.7542254757581245E-002  0.62580860000000005        0.0000000000000000        7.7471903841940264E-006
 chl          17   4.9931809055518839E-021   7.9787668394967466E-021  0.62580860000000005     
 chl2c          18  0.47925950000000000        2.5694475239060960E-002  0.47925950000000000        0.0000000000000000        2.9037303023149805E-006
 chl          18   2.4551921715388754E-023   5.1228868108798582E-023  0.47925950000000000     
 chl2c          19  0.63367130000000005        3.7570220750293731E-002  0.63367130000000005        0.0000000000000000        9.2840765295982294E-016
 chl          19   5.0559155555807953E-021   7.9787668394967466E-021  0.63367130000000005     
 chl2c          20  0.50678202500000002        3.7020645196759419E-002  0.50678202500000002        0.0000000000000000        6.6221319551120638E-006
 chl          20   4.0434956159229878E-021   7.9787668394966999E-021  0.50678202500000002     
 chl2c          21  0.71973185000000006        3.7838475073783531E-002  0.71973185000000006        0.0000000000000000        9.3329238592910893E-016
 chl          21   5.7425726181096138E-021   7.9787668394966999E-021  0.71973185000000006     
 chl2c          22  0.64616892500000001        3.7613353106285476E-002  0.64616892500000001        0.0000000000000000        9.3488744170046675E-016
 chl          22   5.1556311915032607E-021   7.9787668394967466E-021  0.64616892500000001     
 chl2c          23  0.41564179999999995        3.2286562315070731E-002  0.41564179999999995        0.0000000000000000        5.4457642130428507E-021
 chl          23   2.1292858952703636E-023   5.1228868108798582E-023  0.41564179999999995     
 chl2c          24  0.57597492500000003        3.7348402796863071E-002  0.57597492500000003        0.0000000000000000        6.7715607532085665E-006
 chl          24   4.5955696319715990E-021   7.9787668394966999E-021  0.57597492500000003     
 chl2c          25  0.31406487500000002        4.5426679235459781E-002  0.31406487500000002        0.0000000000000000        4.1476794213259130E-021
 chl          25   1.6089188058981313E-023   5.1228868108798582E-023  0.31406487500000002     
 chl2c          26  0.49427735000000000        4.7955660680174553E-002  0.49427735000000000        0.0000000000000000        3.1051349655001581E-011
 chl          26   2.5321269172316476E-023   5.1228868108798582E-023  0.49427735000000000     
 chl2c          27  0.30964730000000001        4.5333133499525620E-002  0.30964730000000001        0.0000000000000000        3.4089474941661460E-010
 chl          27   1.5862880691945589E-023   5.1228868108798582E-023  0.30964730000000001     
 chl2c          28  0.28776342500000002        3.1209236063453518E-002  0.28776342500000002        0.0000000000000000        3.3036579394344096E-010
 chl          28   1.4741794545861152E-023   5.1228868108798582E-023  0.28776342500000002     
 chl2c          29  0.68676297499999994        3.7743217595736761E-002  0.68676297499999994        0.0000000000000000        9.3416903043246314E-016
 chl          29   5.4795216515241010E-021   7.9787668394966999E-021  0.68676297499999994     
 chl2c          30  0.38930277499999999        2.5380056985171612E-002  0.38930277499999999        0.0000000000000000        4.5039825760647564E-006
 chl          30   1.9943540514864289E-023   5.1228868108798582E-023  0.38930277499999999     
 chl2c          31  0.63559385000000002        3.7576959810037038E-002  0.63559385000000002        0.0000000000000000        9.3635891828478929E-016
 chl          31   5.0712551337680398E-021   7.9787668394966999E-021  0.63559385000000002     
 chl2c          32  0.24722667500000001        2.0893126428578448E-002  0.24722667500000001        0.0000000000000000        5.4365799896987605E-016
 chl          32   1.2665142726551811E-023   5.1228868108798582E-023  0.24722667500000001     
 chl2c          33  0.60343137499999999        3.7458922634011876E-002  0.60343137499999999        0.0000000000000000        9.2987482400900826E-016
 chl          33   4.8146382447618981E-021   7.9787668394966999E-021  0.60343137499999999     
 chl2c          34  0.38241020000000003        2.5350269098008315E-002  0.38241020000000003        0.0000000000000000        5.3925601862433203E-016
 chl          34   1.9590441699259290E-023   5.1228868108798582E-023  0.38241020000000003     
 chl2c          35  0.49574644999999995        2.5740370148566064E-002  0.49574644999999995        0.0000000000000000        4.3044670094985180E-006
 chl          35   2.5396529502455109E-023   5.1228868108798582E-023  0.49574644999999995     
 chl2c          36  0.69587337500000002        3.7770393924465726E-002  0.69587337500000002        0.0000000000000000        6.8419591956456401E-006
 chl          36   5.5522114089386848E-021   7.9787668394967466E-021  0.69587337500000002     
 chl2c          37  0.33194060000000003        2.1353674699533250E-002  0.33194060000000003        0.0000000000000000        1.9317709221046849E-006
 chl          37   1.7004941217355467E-023   5.1228868108798582E-023  0.33194060000000003     
 chl2c          38  0.38455722500000000        2.1543295686358745E-002  0.38455722500000000        0.0000000000000000        4.1233768201842826E-006
 chl          38   1.9700431359810582E-023   5.1228868108798582E-023  0.38455722500000000     
 chl2c          39  0.47091117500000002        2.5670077108751441E-002  0.47091117500000002        0.0000000000000000        3.4904072905138979E-006
 chl          39   2.4124246475034368E-023   5.1228868108798582E-023  0.47091117500000002     
 chl2c          40  0.66875547499999999        3.7687445774703773E-002  0.66875547499999999        0.0000000000000000        3.1504350800076065E-006
 chl          40   5.3358440076618958E-021   7.9787668394967466E-021  0.66875547499999999     
 chl2c          41  0.44304987499999998        2.5582381488167241E-002  0.44304987499999998        0.0000000000000000        5.3742548684658036E-016
 chl          41   2.2696943611994697E-023   5.1228868108798582E-023  0.44304987499999998     
 chl2c          42  0.76234377499999995        3.7949995630725070E-002  0.76234377499999995        0.0000000000000000        2.1542164095676279E-006
 chl          42   6.0825632322667328E-021   7.9787668394966999E-021  0.76234377499999995     
 chl2c          43  0.29539925000000000        2.1185090152268007E-002  0.29539925000000000        0.0000000000000000        5.4366008014661180E-016
 chl          43   1.5132969217688020E-023   5.1228868108798582E-023  0.29539925000000000     
 chl2c          44  0.62417262500000004        3.7536352708156646E-002  0.62417262500000004        0.0000000000000000        6.8777310077245551E-006
 chl          44   4.9801278424716089E-021   7.9787668394966999E-021  0.62417262500000004     
 chl2c          45  0.37662252499999999        4.6544927192009838E-002  0.37662252499999999        0.0000000000000000        5.0139839685062452E-021
 chl          45   1.9293945660027697E-023   5.1228868108798582E-023  0.37662252499999999     
 chl2c          46  0.51876034999999998        3.7083195475449568E-002  0.51876034999999998        0.0000000000000000        9.3633199389567698E-016
 chl          46   4.1390678782257019E-021   7.9787668394966999E-021  0.51876034999999998     
 chl2c          47  0.61962282499999999        3.7519784612651236E-002  0.61962282499999999        0.0000000000000000        7.7626515352313292E-006
 chl          47   4.9438260491052669E-021   7.9787668394966999E-021  0.61962282499999999     
 chl2c          48  0.71424949999999998        3.7823212136301673E-002  0.71424949999999998        0.0000000000000000        4.2438358054131760E-006
 chl          48   5.6988302257270979E-021   7.9787668394966999E-021  0.71424949999999998     
 chl2c          49  0.53276120000000005        3.7152990741888416E-002  0.53276120000000005        0.0000000000000000        7.7337169320408018E-006
 chl          49   4.2507773959304697E-021   7.9787668394966999E-021  0.53276120000000005     
 chl2c          50  0.38132569999999999        2.1533072915600981E-002  0.38132569999999999        0.0000000000000000        5.4081536779320523E-016
 chl          50   1.9534883991795296E-023   5.1228868108798582E-023  0.38132569999999999     
 chl2c          51  0.22275920000000002        2.0700971146093840E-002  0.22275920000000002        0.0000000000000000        4.2122295214561509E-006
 chl          51   1.1411701676821486E-023   5.1228868108798582E-023  0.22275920000000002     
 chl2c          52  0.63698869999999996        3.7581825176985564E-002  0.63698869999999996        0.0000000000000000        4.7566876824131282E-006
 chl          52   5.0823843166941409E-021   7.9787668394967466E-021  0.63698869999999996     
 chl2c          53  0.75269794999999995        3.7925801262726190E-002  0.75269794999999995        0.0000000000000000        1.3397576077945907E-006
 chl          53   6.0056014436171795E-021   7.9787668394967466E-021  0.75269794999999995     
 chl2c          54  0.51861124999999997        3.7082433371327092E-002  0.51861124999999997        0.0000000000000000        7.6941346126800992E-006
 chl          54   4.1378782440899326E-021   7.9787668394966999E-021  0.51861124999999997     
 chl2c          55  0.57808280000000001        3.7357235588660491E-002  0.57808280000000001        0.0000000000000000        9.3785047470219688E-016
 chl          55   4.6123878751234031E-021   7.9787668394966999E-021  0.57808280000000001     
 chl2c          56  0.61626080000000005        3.7507394187257688E-002  0.61626080000000005        0.0000000000000000        6.4037980724065803E-006
 chl          56   4.9170012355217373E-021   7.9787668394967466E-021  0.61626080000000005     
 chl2c          57  0.68163462500000005        3.7727617852646313E-002  0.68163462500000005        0.0000000000000000        9.3832777874897745E-016
 chl          57   5.4386037426027689E-021   7.9787668394966999E-021  0.68163462500000005     
 chl2c          58  0.69416802499999997        3.7765358178394853E-002  0.69416802499999997        0.0000000000000000        9.3488744170046675E-016
 chl          58   5.5386048189089481E-021   7.9787668394967466E-021  0.69416802499999997     
 chl2c          59  0.53705127500000005        3.7173699120809672E-002  0.53705127500000005        0.0000000000000000        9.3909834328171138E-016
 chl          59   4.2850069040794232E-021   7.9787668394966999E-021  0.53705127500000005     
 chl2c          60  0.64452155000000000        3.7607757740906807E-002  0.64452155000000000        0.0000000000000000        9.2749795366779000E-016
 chl          60   5.1424871704810146E-021   7.9787668394966999E-021  0.64452155000000000     
 chl2c          61  0.70794139999999994        3.7805373434125003E-002  0.70794139999999994        0.0000000000000000        7.4329392762686757E-006
 chl          61   5.6484993666268684E-021   7.9787668394966999E-021  0.70794139999999994     
 chl2c          62  0.76481592499999995        3.7956103087269030E-002  0.76481592499999995        0.0000000000000000        4.0260984240663579E-006
 chl          62   6.1022879407089950E-021   7.9787668394966999E-021  0.76481592499999995     
 chl2c          63  0.72597904999999996        3.7855601011927406E-002  0.72597904999999996        0.0000000000000000        9.2795625972007791E-016
 chl          63   5.7924175703093505E-021   7.9787668394967466E-021  0.72597904999999996     
 chl2c          64  0.48435739999999999        2.5708982294816416E-002  0.48435739999999999        0.0000000000000000        4.3810880230498984E-006
 chl          64   2.4813081362120598E-023   5.1228868108798582E-023  0.48435739999999999     
 chl2c          65  0.76379975000000000        3.7953597170552002E-002  0.76379975000000000        0.0000000000000000        9.3121393359697960E-016
 chl          65   6.0941801173159051E-021   7.9787668394967466E-021  0.76379975000000000     
 chl2c          66  0.35213202499999996        3.1840477731474713E-002  0.35213202499999996        0.0000000000000000        3.2822842900271444E-011
 chl          66   1.8039325065609164E-023   5.1228868108798582E-023  0.35213202499999996     
 chl2c          67  0.75736760000000003        3.7937587124568600E-002  0.75736760000000003        0.0000000000000000        7.7318886987272615E-006
 chl          67   6.0428594921892009E-021   7.9787668394966999E-021  0.75736760000000003     
 chl2c          68  0.72590779999999999        3.7855407263856986E-002  0.72590779999999999        0.0000000000000000        9.3488744170046675E-016
 chl          68   5.7918490831720361E-021   7.9787668394967466E-021  0.72590779999999999     
 chl2c          69  0.45524217500000003        2.1732330561541505E-002  0.45524217500000003        0.0000000000000000        5.3964182418522619E-016
 chl          69   2.3321541340637603E-023   5.1228868108798582E-023  0.45524217500000003     
 chl2c          70  0.48694062500000002        3.2658010878182209E-002  0.48694062500000002        0.0000000000000000        4.0845652075741528E-010
 chl          70   2.4945417054940951E-023   5.1228868108798582E-023  0.48694062500000002     
 chl2c          71  0.23986107500000001        4.3481058864416305E-002  0.23986107500000001        0.0000000000000000        4.6109412213899693E-021
 chl          71   1.2287811375609646E-023   5.1228868108798582E-023  0.23986107500000001     
 chl2c          72  0.62790522500000001        3.7549776402781669E-002  0.62790522500000001        0.0000000000000000        5.6134292790126880E-006
 chl          72   5.0099093875767434E-021   7.9787668394967466E-021  0.62790522500000001     
 chl2c          73  0.35362212500000001        3.1852614277819484E-002  0.35362212500000001        0.0000000000000000        3.4004063742296519E-011
 chl          73   1.8115661201978085E-023   5.1228868108798582E-023  0.35362212500000001     
 chl2c          74  0.64719590000000005        3.7616827685877569E-002  0.64719590000000005        0.0000000000000000        9.3433138257326475E-016
 chl          74   5.1638251855782225E-021   7.9787668394966999E-021  0.64719590000000005     
 chl2c          75  0.71554212500000003        3.7826830779512356E-002  0.71554212500000003        0.0000000000000000        7.0372379133956422E-006
 chl          75   5.7091437792130359E-021   7.9787668394967466E-021  0.71554212500000003     
 chl2c          76  0.55513977500000000        3.7257729557919804E-002  0.55513977500000000        0.0000000000000000        9.3441820468971126E-016
 chl          76   4.4293308280556850E-021   7.9787668394967466E-021  0.55513977500000000     
 chl2c          77  0.52973029999999999        3.7138172437479272E-002  0.52973029999999999        0.0000000000000000        9.2657737451998488E-016
 chl          77   4.2265945515166387E-021   7.9787668394966999E-021  0.52973029999999999     
 chl2c          78  0.45117492500000000        4.7515248899399322E-002  0.45117492500000000        0.0000000000000000        5.2251716695457416E-020
 chl          78   2.3113180726822091E-023   5.1228868108798582E-023  0.45117492500000000     
 prod   1.8708501913046823E-011   0.0000000000000000        10.000000000000000     
 dcdom   2.5829499361273415E-014  -5.3760192565992921E-018
 chl2c           1  0.60826437499999997        3.7477407714772232E-002  0.60826437499999997        0.0000000000000000        9.3573096002182635E-016
 chl           1   1.2121615998685471E-027   1.9928203092093749E-027  0.60826437499999997     
 chl2c           2  0.48302390000000001        3.2640259920490348E-002  0.48302390000000001        0.0000000000000000        1.6353401037075930E-021
 chl           2   5.2825292867658687E-030   1.0936372479220735E-029  0.48302390000000001     
 chl2c           3  0.75128689999999998        3.7922212503796585E-002  0.75128689999999998        0.0000000000000000        7.4349808522216520E-006
 chl           3   1.4971797923629527E-027   1.9928203092093749E-027  0.75128689999999998     
 chl2c           4  0.77318742499999993        3.7976509103863923E-002  0.77318742499999993        0.0000000000000000        9.3870557786064416E-016
 chl           4   1.5408236033653002E-027   1.9928203092093749E-027  0.77318742499999993     
 chl2c           5  0.48489679999999996        2.5710500362372445E-002  0.48489679999999996        0.0000000000000000        5.3956951445363503E-016
 chl           5   5.3030120187822005E-030   1.0936372479220735E-029  0.48489679999999996     
 chl2c           6  0.29222855000000003        3.1261039902252048E-002  0.29222855000000003        0.0000000000000000        2.5941757990570376E-020
 chl           6   3.1959202718625812E-030   1.0936372479220735E-029  0.29222855000000003     
 chl2c           7  0.22770740000000000        4.3064391842467263E-002  0.22770740000000000        0.0000000000000000        1.5957399442276947E-021
 chl           7   2.4902929426749075E-030   1.0936372479220735E-029  0.22770740000000000     
 chl2c           8  0.49578364999999996        4.7969800906495587E-002  0.49578364999999996        0.0000000000000000        1.6955871406598205E-021
 chl           8   5.4220746655076047E-030   1.0936372479220735E-029  0.49578364999999996     
 chl2c           9  0.28700202499999999        2.4803669054600401E-002  0.28700202499999999        0.0000000000000000        5.4184070760454469E-016
 chl           9   3.1387610476906213E-030   1.0936372479220735E-029  0.28700202499999999     
 chl2c          10  0.39094662499999999        2.5387016219684602E-002  0.39094662499999999        0.0000000000000000        5.4184857116267939E-016
 chl          10   4.2755379104942289E-030   1.0936372479220735E-029  0.39094662499999999     
 chl2c          11  0.49737575000000001        2.1820572217820047E-002  0.49737575000000001        0.0000000000000000        4.4271462918471759E-006
 chl          11   5.4394864641317723E-030   1.0936372479220735E-029  0.49737575000000001     
 chl2c          12  0.30768942500000002        4.5290941298723353E-002  0.30768942500000002        0.0000000000000000        1.3978263718344907E-012
 chl          12   3.3650061597172523E-030   1.0936372479220735E-029  0.30768942500000002     
 chl2c          13  0.75666275000000005        3.7935816987997487E-002  0.75666275000000005        0.0000000000000000        5.1320923727451588E-006
 chl          13   1.5078928954222103E-027   1.9928203092093674E-027  0.75666275000000005     
 chl2c          14  0.39804095000000000        4.6856526101924839E-002  0.39804095000000000        0.0000000000000000        9.8598998440023784E-011
 chl          14   4.3531240911828765E-030   1.0936372479220735E-029  0.39804095000000000     
 chl2c          15  0.25607262500000000        2.0954299823745293E-002  0.25607262500000000        0.0000000000000000        5.4323449673780055E-016
 chl          15   2.8005056087318114E-030   1.0936372479220735E-029  0.25607262500000000     
 chl2c          16  0.71433214999999994        3.7823443882273475E-002  0.71433214999999994        0.0000000000000000        2.5490202227858250E-006
 chl          16   1.4235356160411975E-027   1.9928203092093749E-027  0.71433214999999994     
 chl2c          17  0.62580860000000005        3.7542254757581245E-002  0.62580860000000005        0.0000000000000000        7.6726695803670503E-006
 chl          17   1.2471240877578862E-027   1.9928203092093749E-027  0.62580860000000005     
 chl2c          18  0.47925950000000000        2.5694475239060960E-002  0.47925950000000000        0.0000000000000000        3.1724823856005117E-006
 chl          18   5.2413604062050898E-030   1.0936372479220735E-029  0.47925950000000000     
 chl2c          19  0.63367130000000005        3.7570220750293731E-002  0.63367130000000005        0.0000000000000000        9.2840765295982294E-016
 chl          19   1.2627930360031066E-027   1.9928203092093749E-027  0.63367130000000005     
 chl2c          20  0.50678202500000002        3.7020645196759419E-002  0.50678202500000002        0.0000000000000000        6.2630426194260742E-006
 chl          20   1.0099255117622493E-027   1.9928203092093674E-027  0.50678202500000002     
 chl2c          21  0.71973185000000006        3.7838475073783531E-002  0.71973185000000006        0.0000000000000000        9.3329238592910893E-016
 chl          21   1.4342962478648302E-027   1.9928203092093674E-027  0.71973185000000006     
 chl2c          22  0.64616892500000001        3.7613353106285476E-002  0.64616892500000001        0.0000000000000000        9.3808852734195339E-016
 chl          22   1.2876985569199895E-027   1.9928203092093749E-027  0.64616892500000001     
 chl2c          23  0.41564179999999995        3.2286562315070731E-002  0.41564179999999995        0.0000000000000000        2.3344832301166438E-021
 chl          23   4.5456135427337683E-030   1.0936372479220735E-029  0.41564179999999995     
 chl2c          24  0.57597492500000003        3.7348402796863071E-002  0.57597492500000003        0.0000000000000000        6.8725358513715107E-006
 chl          24   1.1478145281353423E-027   1.9928203092093674E-027  0.57597492500000003     
 chl2c          25  0.31406487500000002        4.5426679235459781E-002  0.31406487500000002        0.0000000000000000        1.7780195111354469E-021
 chl          25   3.4347304556399003E-030   1.0936372479220735E-029  0.31406487500000002     
 chl2c          26  0.49427735000000000        4.7955660680174553E-002  0.49427735000000000        0.0000000000000000        1.3068970110538919E-011
 chl          26   5.4056012076421550E-030   1.0936372479220735E-029  0.49427735000000000     
 chl2c          27  0.30964730000000001        4.5333133499525620E-002  0.30964730000000001        0.0000000000000000        1.6002194771403600E-010
 chl          27   3.3864182099850070E-030   1.0936372479220735E-029  0.30964730000000001     
 chl2c          28  0.28776342500000002        3.1209236063453518E-002  0.28776342500000002        0.0000000000000000        1.5278266497984370E-010
 chl          28   3.1470880016963003E-030   1.0936372479220735E-029  0.28776342500000002     
 chl2c          29  0.68676297499999994        3.7743217595736761E-002  0.68676297499999994        0.0000000000000000        9.3416903043246314E-016
 chl          29   1.3685952041930449E-027   1.9928203092093674E-027  0.68676297499999994     
 chl2c          30  0.38930277499999999        2.5380056985171612E-002  0.38930277499999999        0.0000000000000000        4.4424739452570348E-006
 chl          30   4.2575601545942618E-030   1.0936372479220735E-029  0.38930277499999999     
 chl2c          31  0.63559385000000002        3.7576959810037038E-002  0.63559385000000002        0.0000000000000000        9.3635891828478929E-016
 chl          31   1.2666243326885722E-027   1.9928203092093674E-027  0.63559385000000002     
 chl2c          32  0.24722667500000001        2.0893126428578448E-002  0.24722667500000001        0.0000000000000000        5.4365799896987605E-016
 chl          32   2.7037630045992488E-030   1.0936372479220735E-029  0.24722667500000001     
 chl2c          33  0.60343137499999999        3.7458922634011876E-002  0.60343137499999999        0.0000000000000000        9.2987482400900826E-016
 chl          33   1.2025302993141337E-027   1.9928203092093674E-027  0.60343137499999999     
 chl2c          34  0.38241020000000003        2.5350269098008315E-002  0.38241020000000003        0.0000000000000000        5.3925601862433203E-016
 chl          34   4.1821803870532974E-030   1.0936372479220735E-029  0.38241020000000003     
 chl2c          35  0.49574644999999995        2.5740370148566064E-002  0.49574644999999995        0.0000000000000000        4.3081152332479553E-006
 chl          35   5.4216678324513773E-030   1.0936372479220735E-029  0.49574644999999995     
 chl2c          36  0.69587337500000002        3.7770393924465726E-002  0.69587337500000002        0.0000000000000000        6.9343004579072147E-006
 chl          36   1.3867505943380713E-027   1.9928203092093749E-027  0.69587337500000002     
 chl2c          37  0.33194060000000003        2.1353674699533250E-002  0.33194060000000003        0.0000000000000000        2.2891436974150400E-006
 chl          37   3.6302260425760184E-030   1.0936372479220735E-029  0.33194060000000003     
 chl2c          38  0.38455722500000000        2.1543295686358745E-002  0.38455722500000000        0.0000000000000000        4.1827553801343669E-006
 chl          38   4.2056610521754958E-030   1.0936372479220735E-029  0.38455722500000000     
 chl2c          39  0.47091117500000002        2.5670077108751441E-002  0.47091117500000002        0.0000000000000000        3.6724763887982501E-006
 chl          39   5.1500600144274994E-030   1.0936372479220735E-029  0.47091117500000002     
 chl2c          40  0.66875547499999999        3.7687445774703773E-002  0.66875547499999999        0.0000000000000000        2.5709943404987697E-006
 chl          40   1.3327094924749623E-027   1.9928203092093749E-027  0.66875547499999999     
 chl2c          41  0.44304987499999998        2.5582381488167241E-002  0.44304987499999998        0.0000000000000000        5.3742548684658036E-016
 chl          41   4.8453584598721862E-030   1.0936372479220735E-029  0.44304987499999998     
 chl2c          42  0.76234377499999995        3.7949995630725070E-002  0.76234377499999995        0.0000000000000000        1.5690211323339814E-006
 chl          42   1.5192141574193364E-027   1.9928203092093674E-027  0.76234377499999995     
 chl2c          43  0.29539925000000000        2.1185090152268007E-002  0.29539925000000000        0.0000000000000000        5.4366008014661180E-016
 chl          43   3.2305962280824460E-030   1.0936372479220735E-029  0.29539925000000000     
 chl2c          44  0.62417262500000004        3.7536352708156646E-002  0.62417262500000004        0.0000000000000000        6.5670421167058367E-006
 chl          44   1.2438638835525226E-027   1.9928203092093674E-027  0.62417262500000004     
 chl2c          45  0.37662252499999999        4.6544927192009838E-002  0.37662252499999999        0.0000000000000000        2.1493872656935444E-021
 chl          45   4.1188842174646228E-030   1.0936372479220735E-029  0.37662252499999999     
 chl2c          46  0.51876034999999998        3.7083195475449568E-002  0.51876034999999998        0.0000000000000000        9.3633199389567698E-016
 chl          46   1.0337961610925596E-027   1.9928203092093674E-027  0.51876034999999998     
 chl2c          47  0.61962282499999999        3.7519784612651236E-002  0.61962282499999999        0.0000000000000000        7.6560760787618419E-006
 chl          47   1.2347969497096817E-027   1.9928203092093674E-027  0.61962282499999999     
 chl2c          48  0.71424949999999998        3.7823212136301673E-002  0.71424949999999998        0.0000000000000000        3.6819421552567700E-006
 chl          48   1.4233709094426360E-027   1.9928203092093674E-027  0.71424949999999998     
 chl2c          49  0.53276120000000005        3.7152990741888416E-002  0.53276120000000005        0.0000000000000000        7.6268627807092722E-006
 chl          49   1.0616973393187538E-027   1.9928203092093674E-027  0.53276120000000005     
 chl2c          50  0.38132569999999999        2.1533072915600981E-002  0.38132569999999999        0.0000000000000000        5.4081536779320523E-016
 chl          50   4.1703198910995818E-030   1.0936372479220735E-029  0.38132569999999999     
 chl2c          51  0.22275920000000002        2.0700971146093840E-002  0.22275920000000002        0.0000000000000000        4.2505381125283821E-006
 chl          51   2.4361775843732276E-030   1.0936372479220735E-029  0.22275920000000002     
 chl2c          52  0.63698869999999996        3.7581825176985564E-002  0.63698869999999996        0.0000000000000000        4.2378253414329124E-006
 chl          52   1.2694040180968776E-027   1.9928203092093749E-027  0.63698869999999996     
 chl2c          53  0.75269794999999995        3.7925801262726190E-002  0.75269794999999995        0.0000000000000000        7.7947159208462630E-007
 chl          53   1.4999917614602625E-027   1.9928203092093749E-027  0.75269794999999995     
 chl2c          54  0.51861124999999997        3.7082433371327092E-002  0.51861124999999997        0.0000000000000000        7.5871159249068524E-006
 chl          54   1.0334990315844564E-027   1.9928203092093674E-027  0.51861124999999997     
 chl2c          55  0.57808280000000001        3.7357235588660491E-002  0.57808280000000001        0.0000000000000000        9.3785047470219688E-016
 chl          55   1.1520151442446169E-027   1.9928203092093674E-027  0.57808280000000001     
 chl2c          56  0.61626080000000005        3.7507394187257688E-002  0.61626080000000005        0.0000000000000000        6.5954260375453485E-006
 chl          56   1.2280970380096169E-027   1.9928203092093749E-027  0.61626080000000005     
 chl2c          57  0.68163462500000005        3.7727617852646313E-002  0.68163462500000005        0.0000000000000000        9.3832777874897745E-016
 chl          57   1.3583753241603113E-027   1.9928203092093674E-027  0.68163462500000005     
 chl2c          58  0.69416802499999997        3.7765358178394853E-002  0.69416802499999997        0.0000000000000000        9.3738677829239542E-016
 chl          58   1.3833521382237611E-027   1.9928203092093749E-027  0.69416802499999997     
 chl2c          59  0.53705127500000005        3.7173699120809672E-002  0.53705127500000005        0.0000000000000000        9.3909834328171138E-016
 chl          59   1.0702466879067851E-027   1.9928203092093674E-027  0.53705127500000005     
 chl2c          60  0.64452155000000000        3.7607757740906807E-002  0.64452155000000000        0.0000000000000000        9.2749795366779000E-016
 chl          60   1.2844156345631007E-027   1.9928203092093674E-027  0.64452155000000000     
 chl2c          61  0.70794139999999994        3.7805373434125003E-002  0.70794139999999994        0.0000000000000000        7.4181936666359372E-006
 chl          61   1.4107999996501124E-027   1.9928203092093674E-027  0.70794139999999994     
 chl2c          62  0.76481592499999995        3.7956103087269030E-002  0.76481592499999995        0.0000000000000000        3.4618326715583595E-006
 chl          62   1.5241407081467483E-027   1.9928203092093674E-027  0.76481592499999995     
 chl2c          63  0.72597904999999996        3.7855601011927406E-002  0.72597904999999996        0.0000000000000000        9.2795625972007791E-016
 chl          63   1.4467457949005282E-027   1.9928203092093749E-027  0.72597904999999996     
 chl2c          64  0.48435739999999999        2.5708982294816416E-002  0.48435739999999999        0.0000000000000000        4.3518202919551334E-006
 chl          64   5.2971129394669091E-030   1.0936372479220735E-029  0.48435739999999999     
 chl2c          65  0.76379975000000000        3.7953597170552002E-002  0.76379975000000000        0.0000000000000000        9.3121393359697960E-016
 chl          65   1.5221156539690432E-027   1.9928203092093749E-027  0.76379975000000000     
 chl2c          66  0.35213202499999996        3.1840477731474713E-002  0.35213202499999996        0.0000000000000000        1.4087451900650703E-011
 chl          66   3.8510469872622672E-030   1.0936372479220735E-029  0.35213202499999996     
 chl2c          67  0.75736760000000003        3.7937587124568600E-002  0.75736760000000003        0.0000000000000000        7.6245875476263170E-006
 chl          67   1.5092975348171565E-027   1.9928203092093674E-027  0.75736760000000003     
 chl2c          68  0.72590779999999999        3.7855407263856986E-002  0.72590779999999999        0.0000000000000000        9.3869640003765480E-016
 chl          68   1.4466038064534971E-027   1.9928203092093749E-027  0.72590779999999999     
 chl2c          69  0.45524217500000003        2.1732330561541505E-002  0.45524217500000003        0.0000000000000000        5.3964182418522619E-016
 chl          69   4.9786979940505898E-030   1.0936372479220735E-029  0.45524217500000003     
 chl2c          70  0.48694062500000002        3.2658010878182209E-002  0.48694062500000002        0.0000000000000000        1.8879892735653642E-010
 chl          70   5.3253640502645442E-030   1.0936372479220735E-029  0.48694062500000002     
 chl2c          71  0.23986107500000001        4.3481058864416305E-002  0.23986107500000001        0.0000000000000000        1.9766106684181463E-021
 chl          71   2.6232100594663007E-030   1.0936372479220735E-029  0.23986107500000001     
 chl2c          72  0.62790522500000001        3.7549776402781669E-002  0.62790522500000001        0.0000000000000000        5.1621564845774092E-006
 chl          72   1.2513022846386822E-027   1.9928203092093749E-027  0.62790522500000001     
 chl2c          73  0.35362212500000001        3.1852614277819484E-002  0.35362212500000001        0.0000000000000000        1.5277177087623423E-011
 chl          73   3.8673432758935544E-030   1.0936372479220735E-029  0.35362212500000001     
 chl2c          74  0.64719590000000005        3.7616827685877569E-002  0.64719590000000005        0.0000000000000000        9.3433138257326475E-016
 chl          74   1.2897451335570349E-027   1.9928203092093674E-027  0.64719590000000005     
 chl2c          75  0.71554212500000003        3.7826830779512356E-002  0.71554212500000003        0.0000000000000000        7.0966093911726429E-006
 chl          75   1.4259468787948333E-027   1.9928203092093749E-027  0.71554212500000003     
 chl2c          76  0.55513977500000000        3.7257729557919804E-002  0.55513977500000000        0.0000000000000000        9.3441820468971126E-016
 chl          76   1.1062938180699229E-027   1.9928203092093749E-027  0.55513977500000000     
 chl2c          77  0.52973029999999999        3.7138172437479272E-002  0.52973029999999999        0.0000000000000000        9.2657737451998488E-016
 chl          77   1.0556573002435710E-027   1.9928203092093674E-027  0.52973029999999999     
 chl2c          78  0.45117492500000000        4.7515248899399322E-002  0.45117492500000000        0.0000000000000000        2.4875242518365605E-020
 chl          78   4.9342170330844793E-030   1.0936372479220735E-029  0.45117492500000000     
 prod   8.0198913722061422E-012   0.0000000000000000        10.000000000000000     
 dcdom   1.1006751653263729E-014  -2.2924139348534594E-018
 chl2c           1  0.60826437499999997        3.7477407714772232E-002  0.60826437499999997        0.0000000000000000        9.3573096002182635E-016
 chl           1   2.4422856577539878E-034   4.0151712941498304E-034  0.60826437499999997     
 chl2c           2  0.48302390000000001        3.2640259920490348E-002  0.48302390000000001        0.0000000000000000        8.1184304741609058E-022
 chl           2   9.5124905437922968E-037   1.9693622911396925E-036  0.48302390000000001     
 chl2c           3  0.75128689999999998        3.7922212503796585E-002  0.75128689999999998        0.0000000000000000        7.4172150904754711E-006
 chl           3   3.0165455945508141E-034   4.0151712941498304E-034  0.75128689999999998     
 chl2c           4  0.77318742499999993        3.7976509103863923E-002  0.77318742499999993        0.0000000000000000        9.3912078105338965E-016
 chl           4   3.1044799538576247E-034   4.0151712941498304E-034  0.77318742499999993     
 chl2c           5  0.48489679999999996        2.5710500362372445E-002  0.48489679999999996        0.0000000000000000        5.3956951445363503E-016
 chl           5   9.5493747301430521E-037   1.9693622911396925E-036  0.48489679999999996     
 chl2c           6  0.29222855000000003        3.1261039902252048E-002  0.29222855000000003        0.0000000000000000        1.4011967752815080E-020
 chl           6   5.7550388676443021E-037   1.9693622911396925E-036  0.29222855000000003     
 chl2c           7  0.22770740000000000        4.3064391842467263E-002  0.22770740000000000        0.0000000000000000        7.9218404134752127E-022
 chl           7   4.4843836697346245E-037   1.9693622911396925E-036  0.22770740000000000     
 chl2c           8  0.49578364999999996        4.7969800906495587E-002  0.49578364999999996        0.0000000000000000        8.4175194143727637E-022
 chl           8   9.7637762487359942E-037   1.9693622911396925E-036  0.49578364999999996     
 chl2c           9  0.28700202499999999        2.4803669054600401E-002  0.28700202499999999        0.0000000000000000        5.4184070760454469E-016
 chl           9   5.6521096551573132E-037   1.9693622911396925E-036  0.28700202499999999     
 chl2c          10  0.39094662499999999        2.5387016219684602E-002  0.39094662499999999        0.0000000000000000        5.4184857116267939E-016
 chl          10   7.6991554112333015E-037   1.9693622911396925E-036  0.39094662499999999     
 chl2c          11  0.49737575000000001        2.1820572217820047E-002  0.49737575000000001        0.0000000000000000        4.3926813014222867E-006
 chl          11   9.7951304657732299E-037   1.9693622911396925E-036  0.49737575000000001     
 chl2c          12  0.30768942500000002        4.5290941298723353E-002  0.30768942500000002        0.0000000000000000        3.1138248031278503E-013
 chl          12   6.0595195097745459E-037   1.9693622911396925E-036  0.30768942500000002     
 chl2c          13  0.75666275000000005        3.7935816987997487E-002  0.75666275000000005        0.0000000000000000        4.8332445791213660E-006
 chl          13   3.0381305531524620E-034   4.0151712941498201E-034  0.75666275000000005     
 chl2c          14  0.39804095000000000        4.6856526101924839E-002  0.39804095000000000        0.0000000000000000        5.6746650968058495E-011
 chl          14   7.8388683725941986E-037   1.9693622911396925E-036  0.39804095000000000     
 chl2c          15  0.25607262500000000        2.0954299823745293E-002  0.25607262500000000        0.0000000000000000        5.4323449673780055E-016
 chl          15   5.0429977146815527E-037   1.9693622911396925E-036  0.25607262500000000     
 chl2c          16  0.71433214999999994        3.7823443882273475E-002  0.71433214999999994        0.0000000000000000        2.1923130537990583E-006
 chl          16   2.8681659431683307E-034   4.0151712941498304E-034  0.71433214999999994     
 chl2c          17  0.62580860000000005        3.7542254757581245E-002  0.62580860000000005        0.0000000000000000        7.6116587214395838E-006
 chl          17   2.5127287263520938E-034   4.0151712941498304E-034  0.62580860000000005     
 chl2c          18  0.47925950000000000        2.5694475239060960E-002  0.47925950000000000        0.0000000000000000        3.3135084246921023E-006
 chl          18   9.4383558697046342E-037   1.9693622911396925E-036  0.47925950000000000     
 chl2c          19  0.63367130000000005        3.7570220750293731E-002  0.63367130000000005        0.0000000000000000        9.2840765295982294E-016
 chl          19   2.5442988136866057E-034   4.0151712941498304E-034  0.63367130000000005     
 chl2c          20  0.50678202500000002        3.7020645196759419E-002  0.50678202500000002        0.0000000000000000        6.0299373605815276E-006
 chl          20   2.0348166391711165E-034   4.0151712941498201E-034  0.50678202500000002     
 chl2c          21  0.71973185000000006        3.7838475073783531E-002  0.71973185000000006        0.0000000000000000        9.3329238592910873E-016
 chl          21   2.8898466636053446E-034   4.0151712941498201E-034  0.71973185000000006     
 chl2c          22  0.64616892500000001        3.7613353106285476E-002  0.64616892500000001        0.0000000000000000        9.3808852734195339E-016
 chl          22   2.5944789188316549E-034   4.0151712941498304E-034  0.64616892500000001     
 chl2c          23  0.41564179999999995        3.2286562315070731E-002  0.41564179999999995        0.0000000000000000        1.1589241809882448E-021
 chl          23   8.1854928754142582E-037   1.9693622911396925E-036  0.41564179999999995     
 chl2c          24  0.57597492500000003        3.7348402796863071E-002  0.57597492500000003        0.0000000000000000        6.9166776915834311E-006
 chl          24   2.3126379850100957E-034   4.0151712941498201E-034  0.57597492500000003     
 chl2c          25  0.31406487500000002        4.5426679235459781E-002  0.31406487500000002        0.0000000000000000        8.8267447437158480E-022
 chl          25   6.1850752179650115E-037   1.9693622911396925E-036  0.31406487500000002     
 chl2c          26  0.49427735000000000        4.7955660680174553E-002  0.49427735000000000        0.0000000000000000        6.4073429588506344E-012
 chl          26   9.7341117445445576E-037   1.9693622911396925E-036  0.49427735000000000     
 chl2c          27  0.30964730000000001        4.5333133499525620E-002  0.30964730000000001        0.0000000000000000        8.5674546151852977E-011
 chl          27   6.0980771617321975E-037   1.9693622911396925E-036  0.30964730000000001     
 chl2c          28  0.28776342500000002        3.1209236063453518E-002  0.28776342500000002        0.0000000000000000        8.0846373951415209E-011
 chl          28   5.6671043796420511E-037   1.9693622911396925E-036  0.28776342500000002     
 chl2c          29  0.68676297499999994        3.7743217595736761E-002  0.68676297499999994        0.0000000000000000        9.3416903043246314E-016
 chl          29   2.7574709831049302E-034   4.0151712941498201E-034  0.68676297499999994     
 chl2c          30  0.38930277499999999        2.5380056985171612E-002  0.38930277499999999        0.0000000000000000        4.4053105743446988E-006
 chl          30   7.6667820492104024E-037   1.9693622911396925E-036  0.38930277499999999     
 chl2c          31  0.63559385000000002        3.7576959810037038E-002  0.63559385000000002        0.0000000000000000        9.3635891828478929E-016
 chl          31   2.5520181812581668E-034   4.0151712941498201E-034  0.63559385000000002     
 chl2c          32  0.24722667500000001        2.0893126428578448E-002  0.24722667500000001        0.0000000000000000        5.4365799896987595E-016
 chl          32   4.8687889110884812E-037   1.9693622911396925E-036  0.24722667500000001     
 chl2c          33  0.60343137499999999        3.7458922634011876E-002  0.60343137499999999        0.0000000000000000        9.2987482400900826E-016
 chl          33   2.4228803348893554E-034   4.0151712941498201E-034  0.60343137499999999     
 chl2c          34  0.38241020000000003        2.5350269098008315E-002  0.38241020000000003        0.0000000000000000        5.3925601862433203E-016
 chl          34   7.5310422762718812E-037   1.9693622911396925E-036  0.38241020000000003     
 chl2c          35  0.49574644999999995        2.5740370148566064E-002  0.49574644999999995        0.0000000000000000        4.3003696958931202E-006
 chl          35   9.7630436459636886E-037   1.9693622911396925E-036  0.49574644999999995     
 chl2c          36  0.69587337500000002        3.7770393924465726E-002  0.69587337500000002        0.0000000000000000        6.9735766840672918E-006
 chl          36   2.7940507996631604E-034   4.0151712941498304E-034  0.69587337500000002     
 chl2c          37  0.33194060000000003        2.1353674699533250E-002  0.33194060000000003        0.0000000000000000        2.4896892131487595E-006
 chl          37   6.5371130053828424E-037   1.9693622911396925E-036  0.33194060000000003     
 chl2c          38  0.38455722500000000        2.1543295686358745E-002  0.38455722500000000        0.0000000000000000        4.2037286207755884E-006
 chl          38   7.5733249770032232E-037   1.9693622911396925E-036  0.38455722500000000     
 chl2c          39  0.47091117500000002        2.5670077108751441E-002  0.47091117500000002        0.0000000000000000        3.7615669100169582E-006
 chl          39   9.2739471052128479E-037   1.9693622911396925E-036  0.47091117500000002     
 chl2c          40  0.66875547499999999        3.7687445774703773E-002  0.66875547499999999        0.0000000000000000        2.2143860756381897E-006
 chl          40   2.6851677860255346E-034   4.0151712941498304E-034  0.66875547499999999     
 chl2c          41  0.44304987499999998        2.5582381488167241E-002  0.44304987499999998        0.0000000000000000        5.3742548684658036E-016
 chl          41   8.7252571691915440E-037   1.9693622911396925E-036  0.44304987499999998     
 chl2c          42  0.76234377499999995        3.7949995630725070E-002  0.76234377499999995        0.0000000000000000        1.2232653515203497E-006
 chl          42   3.0609408416538089E-034   4.0151712941498201E-034  0.76234377499999995     
 chl2c          43  0.29539925000000000        2.1185090152268007E-002  0.29539925000000000        0.0000000000000000        5.4366008014661180E-016
 chl          43   5.8174814378094679E-037   1.9693622911396925E-036  0.29539925000000000     
 chl2c          44  0.62417262500000004        3.7536352708156646E-002  0.62417262500000004        0.0000000000000000        6.3640184458325540E-006
 chl          44   2.5061600064941404E-034   4.0151712941498201E-034  0.62417262500000004     
 chl2c          45  0.37662252499999999        4.6544927192009838E-002  0.37662252499999999        0.0000000000000000        1.0670354891053217E-021
 chl          45   7.4170619872881609E-037   1.9693622911396925E-036  0.37662252499999999     
 chl2c          46  0.51876034999999998        3.7083195475449568E-002  0.51876034999999998        0.0000000000000000        9.3633199389567698E-016
 chl          46   2.0829116658631134E-034   4.0151712941498201E-034  0.51876034999999998     
 chl2c          47  0.61962282499999999        3.7519784612651236E-002  0.61962282499999999        0.0000000000000000        7.5914045578404398E-006
 chl          47   2.4878917801400173E-034   4.0151712941498201E-034  0.61962282499999999     
 chl2c          48  0.71424949999999998        3.7823212136301673E-002  0.71424949999999998        0.0000000000000000        3.3350002253805055E-006
 chl          48   2.8678340892608617E-034   4.0151712941498201E-034  0.71424949999999998     
 chl2c          49  0.53276120000000005        3.7152990741888416E-002  0.53276120000000005        0.0000000000000000        7.5617379771396393E-006
 chl          49   2.1391274768768115E-034   4.0151712941498201E-034  0.53276120000000005     
 chl2c          50  0.38132569999999999        2.1533072915600981E-002  0.38132569999999999        0.0000000000000000        5.4081536779320523E-016
 chl          50   7.5096845422244700E-037   1.9693622911396925E-036  0.38132569999999999     
 chl2c          51  0.22275920000000002        2.0700971146093840E-002  0.22275920000000002        0.0000000000000000        4.2604313378729500E-006
 chl          51   4.3869356848444501E-037   1.9693622911396925E-036  0.22275920000000002     
 chl2c          52  0.63698869999999996        3.7581825176985564E-002  0.63698869999999996        0.0000000000000000        3.9024299751193928E-006
 chl          52   2.5576187429378177E-034   4.0151712941498304E-034  0.63698869999999996     
 chl2c          53  0.75269794999999995        3.7925801262726190E-002  0.75269794999999995        0.0000000000000000        4.5443689099095965E-007
 chl          53   3.0222112020054243E-034   4.0151712941498304E-034  0.75269794999999995     
 chl2c          54  0.51861124999999997        3.7082433371327092E-002  0.51861124999999997        0.0000000000000000        7.5216521390155037E-006
 chl          54   2.0823130038231559E-034   4.0151712941498201E-034  0.51861124999999997     
 chl2c          55  0.57808280000000001        3.7357235588660491E-002  0.57808280000000001        0.0000000000000000        9.3785047470219688E-016
 chl          55   2.3211014642017517E-034   4.0151712941498201E-034  0.57808280000000001     
 chl2c          56  0.61626080000000005        3.7507394187257688E-002  0.61626080000000005        0.0000000000000000        6.6763693469535835E-006
 chl          56   2.4743926738698100E-034   4.0151712941498304E-034  0.61626080000000005     
 chl2c          57  0.68163462500000005        3.7727617852646313E-002  0.68163462500000005        0.0000000000000000        9.3832777874897745E-016
 chl          57   2.7368797793985774E-034   4.0151712941498201E-034  0.68163462500000005     
 chl2c          58  0.69416802499999997        3.7765358178394853E-002  0.69416802499999997        0.0000000000000000        9.3738677829239542E-016
 chl          58   2.7872035272966816E-034   4.0151712941498304E-034  0.69416802499999997     
 chl2c          59  0.53705127500000005        3.7173699120809672E-002  0.53705127500000005        0.0000000000000000        9.3909834328171138E-016
 chl          59   2.1563528628665609E-034   4.0151712941498201E-034  0.53705127500000005     
 chl2c          60  0.64452155000000000        3.7607757740906807E-002  0.64452155000000000        0.0000000000000000        9.2749795366779000E-016
 chl          60   2.5878644260209478E-034   4.0151712941498201E-034  0.64452155000000000     
 chl2c          61  0.70794139999999994        3.7805373434125003E-002  0.70794139999999994        0.0000000000000000        7.3990379309564238E-006
 chl          61   2.8425059872202350E-034   4.0151712941498201E-034  0.70794139999999994     
 chl2c          62  0.76481592499999995        3.7956103087269030E-002  0.76481592499999995        0.0000000000000000        3.1147207105060183E-006
 chl          62   3.0708669473686415E-034   4.0151712941498201E-034  0.76481592499999995     
 chl2c          63  0.72597904999999996        3.7855601011927406E-002  0.72597904999999996        0.0000000000000000        9.2795625972007791E-016
 chl          63   2.9149302417141642E-034   4.0151712941498304E-034  0.72597904999999996     
 chl2c          64  0.48435739999999999        2.5708982294816416E-002  0.48435739999999999        0.0000000000000000        4.3281285831494650E-006
 chl          64   9.5387519899446452E-037   1.9693622911396925E-036  0.48435739999999999     
 chl2c          65  0.76379975000000000        3.7953597170552002E-002  0.76379975000000000        0.0000000000000000        9.3121393359697941E-016
 chl          65   3.0667868306788168E-034   4.0151712941498304E-034  0.76379975000000000     
 chl2c          66  0.35213202499999996        3.1840477731474713E-002  0.35213202499999996        0.0000000000000000        6.9822091350088259E-012
 chl          66   6.9347553153765939E-037   1.9693622911396925E-036  0.35213202499999996     
 chl2c          67  0.75736760000000003        3.7937587124568600E-002  0.75736760000000003        0.0000000000000000        7.5590274700776304E-006
 chl          67   3.0409606466391434E-034   4.0151712941498201E-034  0.75736760000000003     
 chl2c          68  0.72590779999999999        3.7855407263856986E-002  0.72590779999999999        0.0000000000000000        9.3869640003765480E-016
 chl          68   2.9146441607594562E-034   4.0151712941498304E-034  0.72590779999999999     
 chl2c          69  0.45524217500000003        2.1732330561541505E-002  0.45524217500000003        0.0000000000000000        5.3964182418522619E-016
 chl          69   8.9653677278141694E-037   1.9693622911396925E-036  0.45524217500000003     
 chl2c          70  0.48694062500000002        3.2658010878182209E-002  0.48694062500000002        0.0000000000000000        9.9866428419283047E-011
 chl          70   9.5896250489899383E-037   1.9693622911396925E-036  0.48694062500000002     
 chl2c          71  0.23986107500000001        4.3481058864416305E-002  0.23986107500000001        0.0000000000000000        9.8126262868695177E-022
 chl          71   4.7237335621722964E-037   1.9693622911396925E-036  0.23986107500000001     
 chl2c          72  0.62790522500000001        3.7549776402781669E-002  0.62790522500000001        0.0000000000000000        4.8610222083660603E-006
 chl          72   2.5211470348666907E-034   4.0151712941498304E-034  0.62790522500000001     
 chl2c          73  0.35362212500000001        3.1852614277819484E-002  0.35362212500000001        0.0000000000000000        7.7522905157466138E-012
 chl          73   6.9641007828768679E-037   1.9693622911396925E-036  0.35362212500000001     
 chl2c          74  0.64719590000000005        3.7616827685877569E-002  0.64719590000000005        0.0000000000000000        9.3433138257326475E-016
 chl          74   2.5986023993714576E-034   4.0151712941498201E-034  0.64719590000000005     
 chl2c          75  0.71554212500000003        3.7826830779512356E-002  0.71554212500000003        0.0000000000000000        7.1175755175803661E-006
 chl          75   2.8730242000549700E-034   4.0151712941498304E-034  0.71554212500000003     
 chl2c          76  0.55513977500000000        3.7257729557919804E-002  0.55513977500000000        0.0000000000000000        9.3441820468971126E-016
 chl          76   2.2289812888207954E-034   4.0151712941498304E-034  0.55513977500000000     
 chl2c          77  0.52973029999999999        3.7138172437479272E-002  0.52973029999999999        0.0000000000000000        9.2657737451998488E-016
 chl          77   2.1269578942013723E-034   4.0151712941498201E-034  0.52973029999999999     
 chl2c          78  0.45117492500000000        4.7515248899399322E-002  0.45117492500000000        0.0000000000000000        1.3435899001025357E-020
 chl          78   8.8852688400277894E-037   1.9693622911396925E-036  0.45117492500000000     
 prod   3.9813634537008374E-012   0.0000000000000000        10.000000000000000     
 dcdom   5.4345560246330026E-015  -1.1312315199629959E-018
 dcdomgraz   7.3756140648358333E-020
 dcdommort   8.1060661631210481E-012
 dcdomgraz   7.4884877280334096E-020
 dcdommort   8.2112457693924483E-012
 dcdomgraz   7.5561901517262179E-020
 dcdommort   8.2692278660997905E-012
 dcdomgraz   7.6197748856764030E-020
 dcdommort   8.3479331386913890E-012
 dcdomgraz   7.6811249213946854E-020
 dcdommort   8.4330056538681520E-012
 dcdomgraz   7.5408852613223930E-020
 dcdommort   8.3410590639365129E-012
 dcdomgraz   7.4007190275764511E-020
 dcdommort   8.2482892745517870E-012
 dcdomgraz   6.1437665667284229E-020
 dcdommort   7.4063601237112543E-012
 dcdomgraz   4.9991377923511512E-020
 dcdommort   6.5628898339129458E-012
 dcdomgraz   3.8290808709875516E-020
 dcdommort   5.2452011339172204E-012
 dcdomgraz   2.6770751411779043E-020
 dcdommort   3.7687189751561036E-012
 dcdomgraz   1.5834330562918289E-020
 dcdommort   2.2925563951349675E-012
 dcdomgraz   1.1142796114287348E-020
 dcdommort   1.6136347725787472E-012
 dcdomgraz   8.3757241284473061E-021
 dcdommort   1.2017327551409355E-012
 dcdomgraz   5.5568927763553728E-021
 dcdommort   7.8997864252758786E-013
 dcdomgraz   1.2343101609583850E-021
 dcdommort   1.7302164855729427E-013
 dcdomgraz   7.1049037474121921E-022
 dcdommort   1.3110514873701527E-013
 dcdomgraz   3.3265009462574207E-022
 dcdommort   8.9711105231661942E-014
 dcdomgraz   9.6484331787236485E-023
 dcdommort   4.8319108862157177E-014
 dcdomgraz   1.9778792312166650E-024
 dcdommort   6.9245097557328402E-015
 dcdomgraz   1.1565184284036521E-031
 dcdommort   4.2878731894250494E-018
 dcdomgraz   0.0000000000000000     
 dcdommort   7.1559845706487850E-022
 dcdomgraz   0.0000000000000000     
 dcdommort   8.2564422022468952E-026
 dcdomgraz   0.0000000000000000     
 dcdommort   2.0495274296535307E-035
 dcdomgraz   0.0000000000000000     
 dcdommort   2.2724765856649094E-034
 dcdomgraz   0.0000000000000000     
 dcdommort   1.7754216940645699E-029
 dcdomgraz   0.0000000000000000     
 dcdommort   1.2045391382674615E-023
 dcdomgraz   0.0000000000000000     
 dcdommort   3.7677987842351222E-018
 dcdomgraz   5.8189055179800089E-026
 dcdommort   1.7897151889316516E-017
 dcdomgraz   1.0134297491255665E-027
 dcdommort   4.9156457883170109E-018
 dcdomgraz   1.0129001556110914E-027
 dcdommort   4.9153793574861577E-018
 dcdomgraz   0.0000000000000000     
 dcdommort   7.3564623605170444E-023
 dcdomgraz   0.0000000000000000     
 dcdommort   2.5508951873408633E-031
 dcdomgraz   0.0000000000000000     
 dcdommort   5.4419081639090157E-038
 dcdomgraz   0.0000000000000000     
 dcdommort   9.7954336900231070E-045
 fe   1.3002605578699600E-003
(PID.TID 0000.0001) // =======================================================
(PID.TID 0000.0001) // Begin MONITOR dynamic field statistics
(PID.TID 0000.0001) // =======================================================
(PID.TID 0000.0001) %MON time_tsnumber                =                     2
(PID.TID 0000.0001) %MON time_secondsf                =   7.2000000000000000E+03
(PID.TID 0000.0001) %MON dynstat_eta_max              =   0.0000000000000000E+00
(PID.TID 0000.0001) %MON dynstat_eta_min              =   0.0000000000000000E+00
(PID.TID 0000.0001) %MON dynstat_eta_mean             =   0.0000000000000000E+00
(PID.TID 0000.0001) %MON dynstat_eta_sd               =   0.0000000000000000E+00
(PID.TID 0000.0001) %MON dynstat_eta_del2             =   0.0000000000000000E+00
(PID.TID 0000.0001) %MON dynstat_uvel_max             =   0.0000000000000000E+00
(PID.TID 0000.0001) %MON dynstat_uvel_min             =   0.0000000000000000E+00
(PID.TID 0000.0001) %MON dynstat_uvel_mean            =   0.0000000000000000E+00
(PID.TID 0000.0001) %MON dynstat_uvel_sd              =   0.0000000000000000E+00
(PID.TID 0000.0001) %MON dynstat_uvel_del2            =   0.0000000000000000E+00
(PID.TID 0000.0001) %MON dynstat_vvel_max             =   0.0000000000000000E+00
(PID.TID 0000.0001) %MON dynstat_vvel_min             =   0.0000000000000000E+00
(PID.TID 0000.0001) %MON dynstat_vvel_mean            =   0.0000000000000000E+00
(PID.TID 0000.0001) %MON dynstat_vvel_sd              =   0.0000000000000000E+00
(PID.TID 0000.0001) %MON dynstat_vvel_del2            =   0.0000000000000000E+00
(PID.TID 0000.0001) %MON dynstat_wvel_max             =   0.0000000000000000E+00
(PID.TID 0000.0001) %MON dynstat_wvel_min             =   0.0000000000000000E+00
(PID.TID 0000.0001) %MON dynstat_wvel_mean            =   0.0000000000000000E+00
(PID.TID 0000.0001) %MON dynstat_wvel_sd              =   0.0000000000000000E+00
(PID.TID 0000.0001) %MON dynstat_wvel_del2            =   0.0000000000000000E+00
(PID.TID 0000.0001) %MON dynstat_theta_max            =   2.6326133202982895E+01
(PID.TID 0000.0001) %MON dynstat_theta_min            =   2.6737005429264729E+00
(PID.TID 0000.0001) %MON dynstat_theta_mean           =   5.4735411526788162E+00
(PID.TID 0000.0001) %MON dynstat_theta_sd             =   5.1969661225680159E+00
(PID.TID 0000.0001) %MON dynstat_theta_del2           =   0.0000000000000000E+00
(PID.TID 0000.0001) %MON dynstat_salt_max             =   3.5000000000000000E+01
(PID.TID 0000.0001) %MON dynstat_salt_min             =   3.5000000000000000E+01
(PID.TID 0000.0001) %MON dynstat_salt_mean            =   3.5000000000000007E+01
(PID.TID 0000.0001) %MON dynstat_salt_sd              =   7.1054273576010019E-15
(PID.TID 0000.0001) %MON dynstat_salt_del2            =   0.0000000000000000E+00
(PID.TID 0000.0001) %MON dynstat_sst_max              =   2.6326133202982895E+01
(PID.TID 0000.0001) %MON dynstat_sst_min              =   2.6326133202982895E+01
(PID.TID 0000.0001) %MON dynstat_sst_mean             =   2.6326133202982895E+01
(PID.TID 0000.0001) %MON dynstat_sst_sd               =   0.0000000000000000E+00
(PID.TID 0000.0001) %MON dynstat_sst_del2             =   0.0000000000000000E+00
(PID.TID 0000.0001) %MON dynstat_sss_max              =   3.5000000000000000E+01
(PID.TID 0000.0001) %MON dynstat_sss_min              =   3.5000000000000000E+01
(PID.TID 0000.0001) %MON dynstat_sss_mean             =   3.5000000000000000E+01
(PID.TID 0000.0001) %MON dynstat_sss_sd               =   0.0000000000000000E+00
(PID.TID 0000.0001) %MON dynstat_sss_del2             =   0.0000000000000000E+00
(PID.TID 0000.0001) %MON forcing_qnet_max             =   0.0000000000000000E+00
(PID.TID 0000.0001) %MON forcing_qnet_min             =   0.0000000000000000E+00
(PID.TID 0000.0001) %MON forcing_qnet_mean            =   0.0000000000000000E+00
(PID.TID 0000.0001) %MON forcing_qnet_sd              =   0.0000000000000000E+00
(PID.TID 0000.0001) %MON forcing_qnet_del2            =   0.0000000000000000E+00
(PID.TID 0000.0001) %MON forcing_qsw_max              =   0.0000000000000000E+00
(PID.TID 0000.0001) %MON forcing_qsw_min              =   0.0000000000000000E+00
(PID.TID 0000.0001) %MON forcing_qsw_mean             =   0.0000000000000000E+00
(PID.TID 0000.0001) %MON forcing_qsw_sd               =   0.0000000000000000E+00
(PID.TID 0000.0001) %MON forcing_qsw_del2             =   0.0000000000000000E+00
(PID.TID 0000.0001) %MON forcing_empmr_max            =   0.0000000000000000E+00
(PID.TID 0000.0001) %MON forcing_empmr_min            =   0.0000000000000000E+00
(PID.TID 0000.0001) %MON forcing_empmr_mean           =   0.0000000000000000E+00
(PID.TID 0000.0001) %MON forcing_empmr_sd             =   0.0000000000000000E+00
(PID.TID 0000.0001) %MON forcing_empmr_del2           =   0.0000000000000000E+00
(PID.TID 0000.0001) %MON forcing_fu_max               =   0.0000000000000000E+00
(PID.TID 0000.0001) %MON forcing_fu_min               =   0.0000000000000000E+00
(PID.TID 0000.0001) %MON forcing_fu_mean              =   0.0000000000000000E+00
(PID.TID 0000.0001) %MON forcing_fu_sd                =   0.0000000000000000E+00
(PID.TID 0000.0001) %MON forcing_fu_del2              =   0.0000000000000000E+00
(PID.TID 0000.0001) %MON forcing_fv_max               =   0.0000000000000000E+00
(PID.TID 0000.0001) %MON forcing_fv_min               =   0.0000000000000000E+00
(PID.TID 0000.0001) %MON forcing_fv_mean              =   0.0000000000000000E+00
(PID.TID 0000.0001) %MON forcing_fv_sd                =   0.0000000000000000E+00
(PID.TID 0000.0001) %MON forcing_fv_del2              =   0.0000000000000000E+00
(PID.TID 0000.0001) %MON advcfl_uvel_max              =   0.0000000000000000E+00
(PID.TID 0000.0001) %MON advcfl_vvel_max              =   0.0000000000000000E+00
(PID.TID 0000.0001) %MON advcfl_wvel_max              =   0.0000000000000000E+00
(PID.TID 0000.0001) %MON advcfl_W_hf_max              =   0.0000000000000000E+00
(PID.TID 0000.0001) %MON pe_b_mean                    =   0.0000000000000000E+00
(PID.TID 0000.0001) %MON ke_max                       =   0.0000000000000000E+00
(PID.TID 0000.0001) %MON ke_mean                      =   0.0000000000000000E+00
(PID.TID 0000.0001) %MON ke_vol                       =   4.1199767883484609E+13
(PID.TID 0000.0001) %MON vort_r_min                   =   0.0000000000000000E+00
(PID.TID 0000.0001) %MON vort_r_max                   =   0.0000000000000000E+00
(PID.TID 0000.0001) %MON vort_a_mean                  =  -4.5067801836624727E-05
(PID.TID 0000.0001) %MON vort_a_sd                    =  -4.1359030627651384E-25
(PID.TID 0000.0001) %MON vort_p_mean                  =  -4.5067801836624727E-05
(PID.TID 0000.0001) %MON vort_p_sd                    =   0.0000000000000000E+00
(PID.TID 0000.0001) %MON surfExpan_theta_mean         =   0.0000000000000000E+00
(PID.TID 0000.0001) %MON surfExpan_salt_mean          =   0.0000000000000000E+00
(PID.TID 0000.0001) // =======================================================
(PID.TID 0000.0001) // End MONITOR dynamic field statistics
(PID.TID 0000.0001) // =======================================================
(PID.TID 0000.0001) // =======================================================
(PID.TID 0000.0001) // Begin MONITOR ptracer field statistics
(PID.TID 0000.0001) // =======================================================
(PID.TID 0000.0001) %MON trcstat_ptracer01_max        =   2.0000000001281112E+03
(PID.TID 0000.0001) %MON trcstat_ptracer01_min        =   1.9999997088304847E+03
(PID.TID 0000.0001) %MON trcstat_ptracer01_mean       =   1.9999999987119879E+03
(PID.TID 0000.0001) %MON trcstat_ptracer01_sd         =   1.7212586072299490E-05
(PID.TID 0000.0001) %MON trcstat_ptracer01_del2       =   0.0000000000000000E+00
(PID.TID 0000.0001) %MON trcstat_ptracer02_max        =   2.1551879300444235E-02
(PID.TID 0000.0001) %MON trcstat_ptracer02_min        =   1.5766837834223705E-07
(PID.TID 0000.0001) %MON trcstat_ptracer02_mean       =   5.2495800137358968E-04
(PID.TID 0000.0001) %MON trcstat_ptracer02_sd         =   2.8184138112180290E-03
(PID.TID 0000.0001) %MON trcstat_ptracer02_del2       =   0.0000000000000000E+00
(PID.TID 0000.0001) %MON trcstat_ptracer03_max        =   1.8602375815135009E-02
(PID.TID 0000.0001) %MON trcstat_ptracer03_min        =   3.8773192252470404E-06
(PID.TID 0000.0001) %MON trcstat_ptracer03_mean       =   6.8100869648374078E-04
(PID.TID 0000.0001) %MON trcstat_ptracer03_sd         =   2.1511873266646152E-03
(PID.TID 0000.0001) %MON trcstat_ptracer03_del2       =   0.0000000000000000E+00
(PID.TID 0000.0001) %MON trcstat_ptracer04_max        =   3.3903496291099721E+01
(PID.TID 0000.0001) %MON trcstat_ptracer04_min        =   4.6535032190670803E-02
(PID.TID 0000.0001) %MON trcstat_ptracer04_mean       =   2.3502394797815153E+01
(PID.TID 0000.0001) %MON trcstat_ptracer04_sd         =   7.8161875838913106E+00
(PID.TID 0000.0001) %MON trcstat_ptracer04_del2       =   0.0000000000000000E+00
(PID.TID 0000.0001) %MON trcstat_ptracer05_max        =   2.2436995925166032E+00
(PID.TID 0000.0001) %MON trcstat_ptracer05_min        =   2.1025602030712651E-01
(PID.TID 0000.0001) %MON trcstat_ptracer05_mean       =   1.5821339136332535E+00
(PID.TID 0000.0001) %MON trcstat_ptracer05_sd         =   4.6734984106909994E-01
(PID.TID 0000.0001) %MON trcstat_ptracer05_del2       =   0.0000000000000000E+00
(PID.TID 0000.0001) %MON trcstat_ptracer06_max        =   3.9387401115092409E+01
(PID.TID 0000.0001) %MON trcstat_ptracer06_min        =   1.2248097703874636E+00
(PID.TID 0000.0001) %MON trcstat_ptracer06_mean       =   2.9621890295176804E+01
(PID.TID 0000.0001) %MON trcstat_ptracer06_sd         =   1.1270584253913043E+01
(PID.TID 0000.0001) %MON trcstat_ptracer06_del2       =   0.0000000000000000E+00
(PID.TID 0000.0001) %MON trcstat_ptracer07_max        =   1.3002605578699600E-03
(PID.TID 0000.0001) %MON trcstat_ptracer07_min        =   1.2999707823365019E-03
(PID.TID 0000.0001) %MON trcstat_ptracer07_mean       =   1.2999717745509091E-03
(PID.TID 0000.0001) %MON trcstat_ptracer07_sd         =   1.5486068869530667E-08
(PID.TID 0000.0001) %MON trcstat_ptracer07_del2       =   0.0000000000000000E+00
(PID.TID 0000.0001) %MON trcstat_ptracer08_max        =   4.0011206142894374E-03
(PID.TID 0000.0001) %MON trcstat_ptracer08_min        =  -1.0806123070595650E-06
(PID.TID 0000.0001) %MON trcstat_ptracer08_mean       =   3.5329763002391832E-05
(PID.TID 0000.0001) %MON trcstat_ptracer08_sd         =   2.5572550667946140E-04
(PID.TID 0000.0001) %MON trcstat_ptracer08_del2       =   0.0000000000000000E+00
(PID.TID 0000.0001) %MON trcstat_ptracer09_max        =   8.2279318431837778E-02
(PID.TID 0000.0001) %MON trcstat_ptracer09_min        =   3.0657552148504938E-08
(PID.TID 0000.0001) %MON trcstat_ptracer09_mean       =   3.4397163073490392E-03
(PID.TID 0000.0001) %MON trcstat_ptracer09_sd         =   1.4802456939667377E-02
(PID.TID 0000.0001) %MON trcstat_ptracer09_del2       =   0.0000000000000000E+00
(PID.TID 0000.0001) %MON trcstat_ptracer10_max        =   5.1424574019898611E-03
(PID.TID 0000.0001) %MON trcstat_ptracer10_min        =   1.9160970092815586E-09
(PID.TID 0000.0001) %MON trcstat_ptracer10_mean       =   2.1498226920931495E-04
(PID.TID 0000.0001) %MON trcstat_ptracer10_sd         =   9.2515355872921107E-04
(PID.TID 0000.0001) %MON trcstat_ptracer10_del2       =   0.0000000000000000E+00
(PID.TID 0000.0001) %MON trcstat_ptracer11_max        =   5.1424573908314460E-06
(PID.TID 0000.0001) %MON trcstat_ptracer11_min        =   1.9160967947862330E-12
(PID.TID 0000.0001) %MON trcstat_ptracer11_mean       =   2.1498226951643976E-07
(PID.TID 0000.0001) %MON trcstat_ptracer11_sd         =   9.2515355837575688E-07
(PID.TID 0000.0001) %MON trcstat_ptracer11_del2       =   0.0000000000000000E+00
(PID.TID 0000.0001) %MON trcstat_ptracer12_max        =   2.0659571831736277E-04
(PID.TID 0000.0001) %MON trcstat_ptracer12_min        =   1.3353030997666849E-33
(PID.TID 0000.0001) %MON trcstat_ptracer12_mean       =   6.1625506990795288E-06
(PID.TID 0000.0001) %MON trcstat_ptracer12_sd         =   3.2267406323416809E-05
(PID.TID 0000.0001) %MON trcstat_ptracer12_del2       =   0.0000000000000000E+00
(PID.TID 0000.0001) %MON trcstat_ptracer13_max        =   4.3519536431214064E-03
(PID.TID 0000.0001) %MON trcstat_ptracer13_min        =   1.8797873544542111E-05
(PID.TID 0000.0001) %MON trcstat_ptracer13_mean       =   1.2616270449584243E-03
(PID.TID 0000.0001) %MON trcstat_ptracer13_sd         =   1.5439342031596005E-03
(PID.TID 0000.0001) %MON trcstat_ptracer13_del2       =   0.0000000000000000E+00
(PID.TID 0000.0001) %MON trcstat_ptracer14_max        =   2.7199710269508790E-04
(PID.TID 0000.0001) %MON trcstat_ptracer14_min        =   1.1748670965338819E-06
(PID.TID 0000.0001) %MON trcstat_ptracer14_mean       =   7.8851690309901520E-05
(PID.TID 0000.0001) %MON trcstat_ptracer14_sd         =   9.6495887697475033E-05
(PID.TID 0000.0001) %MON trcstat_ptracer14_del2       =   0.0000000000000000E+00
(PID.TID 0000.0001) %MON trcstat_ptracer15_max        =   1.6246073438269136E-02
(PID.TID 0000.0001) %MON trcstat_ptracer15_min        =   1.1391880996624707E-03
(PID.TID 0000.0001) %MON trcstat_ptracer15_mean       =   5.4884963902811527E-03
(PID.TID 0000.0001) %MON trcstat_ptracer15_sd         =   5.1699312765861221E-03
(PID.TID 0000.0001) %MON trcstat_ptracer15_del2       =   0.0000000000000000E+00
(PID.TID 0000.0001) %MON trcstat_ptracer16_max        =   2.7199711852782305E-07
(PID.TID 0000.0001) %MON trcstat_ptracer16_min        =   1.1748669679954988E-09
(PID.TID 0000.0001) %MON trcstat_ptracer16_mean       =   7.8851690835644110E-08
(PID.TID 0000.0001) %MON trcstat_ptracer16_sd         =   9.6495889753830392E-08
(PID.TID 0000.0001) %MON trcstat_ptracer16_del2       =   0.0000000000000000E+00
(PID.TID 0000.0001) %MON trcstat_ptracer17_max        =   0.0000000000000000E+00
(PID.TID 0000.0001) %MON trcstat_ptracer17_min        =   0.0000000000000000E+00
(PID.TID 0000.0001) %MON trcstat_ptracer17_mean       =   0.0000000000000000E+00
(PID.TID 0000.0001) %MON trcstat_ptracer17_sd         =   0.0000000000000000E+00
(PID.TID 0000.0001) %MON trcstat_ptracer17_del2       =   0.0000000000000000E+00
(PID.TID 0000.0001) %MON trcstat_ptracer18_max        =   5.1100981394422073E-03
(PID.TID 0000.0001) %MON trcstat_ptracer18_min        =   3.9108009920167516E-11
(PID.TID 0000.0001) %MON trcstat_ptracer18_mean       =   2.1453156416475895E-04
(PID.TID 0000.0001) %MON trcstat_ptracer18_sd         =   9.2341496874422048E-04
(PID.TID 0000.0001) %MON trcstat_ptracer18_del2       =   0.0000000000000000E+00
(PID.TID 0000.0001) %MON trcstat_ptracer19_max        =   8.7415769256738026E-04
(PID.TID 0000.0001) %MON trcstat_ptracer19_min        =   8.3435696679805599E-32
(PID.TID 0000.0001) %MON trcstat_ptracer19_mean       =   2.6066315330498398E-05
(PID.TID 0000.0001) %MON trcstat_ptracer19_sd         =   1.3662472610140029E-04
(PID.TID 0000.0001) %MON trcstat_ptracer19_del2       =   0.0000000000000000E+00
(PID.TID 0000.0001) %MON trcstat_ptracer20_max        =   8.7419459125130303E-04
(PID.TID 0000.0001) %MON trcstat_ptracer20_min        =   1.9693622911396925E-36
(PID.TID 0000.0001) %MON trcstat_ptracer20_mean       =   2.6103039804032246E-05
(PID.TID 0000.0001) %MON trcstat_ptracer20_sd         =   1.3687984600382650E-04
(PID.TID 0000.0001) %MON trcstat_ptracer20_del2       =   0.0000000000000000E+00
(PID.TID 0000.0001) %MON trcstat_ptracer21_max        =   8.7415769256738026E-04
(PID.TID 0000.0001) %MON trcstat_ptracer21_min        =   8.3435696679805599E-32
(PID.TID 0000.0001) %MON trcstat_ptracer21_mean       =   2.6066315330499011E-05
(PID.TID 0000.0001) %MON trcstat_ptracer21_sd         =   1.3662472610140392E-04
(PID.TID 0000.0001) %MON trcstat_ptracer21_del2       =   0.0000000000000000E+00
(PID.TID 0000.0001) %MON trcstat_ptracer22_max        =   8.7415769310199309E-04
(PID.TID 0000.0001) %MON trcstat_ptracer22_min        =   8.3435696679805599E-32
(PID.TID 0000.0001) %MON trcstat_ptracer22_mean       =   2.6123527457449266E-05
(PID.TID 0000.0001) %MON trcstat_ptracer22_sd         =   1.3696808262325086E-04
(PID.TID 0000.0001) %MON trcstat_ptracer22_del2       =   0.0000000000000000E+00
(PID.TID 0000.0001) %MON trcstat_ptracer23_max        =   8.7419459133624084E-04
(PID.TID 0000.0001) %MON trcstat_ptracer23_min        =   1.9693622911396925E-36
(PID.TID 0000.0001) %MON trcstat_ptracer23_mean       =   2.6138546900819339E-05
(PID.TID 0000.0001) %MON trcstat_ptracer23_sd         =   1.3709449650970389E-04
(PID.TID 0000.0001) %MON trcstat_ptracer23_del2       =   0.0000000000000000E+00
(PID.TID 0000.0001) %MON trcstat_ptracer24_max        =   8.7419459121900974E-04
(PID.TID 0000.0001) %MON trcstat_ptracer24_min        =   1.9693622911396925E-36
(PID.TID 0000.0001) %MON trcstat_ptracer24_mean       =   2.6066315326710148E-05
(PID.TID 0000.0001) %MON trcstat_ptracer24_sd         =   1.3665955859178450E-04
(PID.TID 0000.0001) %MON trcstat_ptracer24_del2       =   0.0000000000000000E+00
(PID.TID 0000.0001) %MON trcstat_ptracer25_max        =   8.7419459122634795E-04
(PID.TID 0000.0001) %MON trcstat_ptracer25_min        =   1.9693622911396925E-36
(PID.TID 0000.0001) %MON trcstat_ptracer25_mean       =   2.6085674035599188E-05
(PID.TID 0000.0001) %MON trcstat_ptracer25_sd         =   1.3677531949610655E-04
(PID.TID 0000.0001) %MON trcstat_ptracer25_del2       =   0.0000000000000000E+00
(PID.TID 0000.0001) %MON trcstat_ptracer26_max        =   8.7419459121900974E-04
(PID.TID 0000.0001) %MON trcstat_ptracer26_min        =   1.9693622911396925E-36
(PID.TID 0000.0001) %MON trcstat_ptracer26_mean       =   2.6066315326708606E-05
(PID.TID 0000.0001) %MON trcstat_ptracer26_sd         =   1.3665955859177523E-04
(PID.TID 0000.0001) %MON trcstat_ptracer26_del2       =   0.0000000000000000E+00
(PID.TID 0000.0001) %MON trcstat_ptracer27_max        =   8.7419459124293581E-04
(PID.TID 0000.0001) %MON trcstat_ptracer27_min        =   1.9693622911396925E-36
(PID.TID 0000.0001) %MON trcstat_ptracer27_mean       =   2.6067801403260481E-05
(PID.TID 0000.0001) %MON trcstat_ptracer27_sd         =   1.3666857547472676E-04
(PID.TID 0000.0001) %MON trcstat_ptracer27_del2       =   0.0000000000000000E+00
(PID.TID 0000.0001) %MON trcstat_ptracer28_max        =   8.7419459131682484E-04
(PID.TID 0000.0001) %MON trcstat_ptracer28_min        =   1.9693622911396925E-36
(PID.TID 0000.0001) %MON trcstat_ptracer28_mean       =   2.6145046027203765E-05
(PID.TID 0000.0001) %MON trcstat_ptracer28_sd         =   1.3713373629831648E-04
(PID.TID 0000.0001) %MON trcstat_ptracer28_del2       =   0.0000000000000000E+00
(PID.TID 0000.0001) %MON trcstat_ptracer29_max        =   8.7419459121900974E-04
(PID.TID 0000.0001) %MON trcstat_ptracer29_min        =   1.9693622911396925E-36
(PID.TID 0000.0001) %MON trcstat_ptracer29_mean       =   2.6066315326712503E-05
(PID.TID 0000.0001) %MON trcstat_ptracer29_sd         =   1.3665955859179868E-04
(PID.TID 0000.0001) %MON trcstat_ptracer29_del2       =   0.0000000000000000E+00
(PID.TID 0000.0001) %MON trcstat_ptracer30_max        =   8.7419459121900974E-04
(PID.TID 0000.0001) %MON trcstat_ptracer30_min        =   1.9693622911396925E-36
(PID.TID 0000.0001) %MON trcstat_ptracer30_mean       =   2.6066315326708579E-05
(PID.TID 0000.0001) %MON trcstat_ptracer30_sd         =   1.3665955859177502E-04
(PID.TID 0000.0001) %MON trcstat_ptracer30_del2       =   0.0000000000000000E+00
(PID.TID 0000.0001) %MON trcstat_ptracer31_max        =   8.7415769243190768E-04
(PID.TID 0000.0001) %MON trcstat_ptracer31_min        =   8.3435696679805282E-32
(PID.TID 0000.0001) %MON trcstat_ptracer31_mean       =   2.6066315326712177E-05
(PID.TID 0000.0001) %MON trcstat_ptracer31_sd         =   1.3662472608101447E-04
(PID.TID 0000.0001) %MON trcstat_ptracer31_del2       =   0.0000000000000000E+00
(PID.TID 0000.0001) %MON trcstat_ptracer32_max        =   8.7419459121900974E-04
(PID.TID 0000.0001) %MON trcstat_ptracer32_min        =   1.9693622911396925E-36
(PID.TID 0000.0001) %MON trcstat_ptracer32_mean       =   2.6066315326709030E-05
(PID.TID 0000.0001) %MON trcstat_ptracer32_sd         =   1.3665955859177775E-04
(PID.TID 0000.0001) %MON trcstat_ptracer32_del2       =   0.0000000000000000E+00
(PID.TID 0000.0001) %MON trcstat_ptracer33_max        =   8.7419459124668888E-04
(PID.TID 0000.0001) %MON trcstat_ptracer33_min        =   1.9693622911396925E-36
(PID.TID 0000.0001) %MON trcstat_ptracer33_mean       =   2.6130291030766749E-05
(PID.TID 0000.0001) %MON trcstat_ptracer33_sd         =   1.3704427367148829E-04
(PID.TID 0000.0001) %MON trcstat_ptracer33_del2       =   0.0000000000000000E+00
(PID.TID 0000.0001) %MON trcstat_ptracer34_max        =   8.7415769256738026E-04
(PID.TID 0000.0001) %MON trcstat_ptracer34_min        =   8.3435696679805599E-32
(PID.TID 0000.0001) %MON trcstat_ptracer34_mean       =   2.6066315330499350E-05
(PID.TID 0000.0001) %MON trcstat_ptracer34_sd         =   1.3662472610140601E-04
(PID.TID 0000.0001) %MON trcstat_ptracer34_del2       =   0.0000000000000000E+00
(PID.TID 0000.0001) %MON trcstat_ptracer35_max        =   8.7415769256738026E-04
(PID.TID 0000.0001) %MON trcstat_ptracer35_min        =   8.3435696679805599E-32
(PID.TID 0000.0001) %MON trcstat_ptracer35_mean       =   2.6066315330499346E-05
(PID.TID 0000.0001) %MON trcstat_ptracer35_sd         =   1.3662472610140598E-04
(PID.TID 0000.0001) %MON trcstat_ptracer35_del2       =   0.0000000000000000E+00
(PID.TID 0000.0001) %MON trcstat_ptracer36_max        =   8.7419459121900974E-04
(PID.TID 0000.0001) %MON trcstat_ptracer36_min        =   1.9693622911396925E-36
(PID.TID 0000.0001) %MON trcstat_ptracer36_mean       =   2.6066315326712838E-05
(PID.TID 0000.0001) %MON trcstat_ptracer36_sd         =   1.3665955859180071E-04
(PID.TID 0000.0001) %MON trcstat_ptracer36_del2       =   0.0000000000000000E+00
(PID.TID 0000.0001) %MON trcstat_ptracer37_max        =   8.7415769297197665E-04
(PID.TID 0000.0001) %MON trcstat_ptracer37_min        =   8.3435696679805599E-32
(PID.TID 0000.0001) %MON trcstat_ptracer37_mean       =   2.6092638189678851E-05
(PID.TID 0000.0001) %MON trcstat_ptracer37_sd         =   1.3678254982733300E-04
(PID.TID 0000.0001) %MON trcstat_ptracer37_del2       =   0.0000000000000000E+00
(PID.TID 0000.0001) %MON trcstat_ptracer38_max        =   8.7415769243190768E-04
(PID.TID 0000.0001) %MON trcstat_ptracer38_min        =   8.3435696679805282E-32
(PID.TID 0000.0001) %MON trcstat_ptracer38_mean       =   2.6066315326712879E-05
(PID.TID 0000.0001) %MON trcstat_ptracer38_sd         =   1.3662472608101873E-04
(PID.TID 0000.0001) %MON trcstat_ptracer38_del2       =   0.0000000000000000E+00
(PID.TID 0000.0001) %MON trcstat_ptracer39_max        =   8.7415769265595232E-04
(PID.TID 0000.0001) %MON trcstat_ptracer39_min        =   8.3435696679805282E-32
(PID.TID 0000.0001) %MON trcstat_ptracer39_mean       =   2.6069474227202789E-05
(PID.TID 0000.0001) %MON trcstat_ptracer39_sd         =   1.3664382760966503E-04
(PID.TID 0000.0001) %MON trcstat_ptracer39_del2       =   0.0000000000000000E+00
(PID.TID 0000.0001) %MON trcstat_ptracer40_max        =   8.7415769302930644E-04
(PID.TID 0000.0001) %MON trcstat_ptracer40_min        =   8.3435696679805599E-32
(PID.TID 0000.0001) %MON trcstat_ptracer40_mean       =   2.6142304405675981E-05
(PID.TID 0000.0001) %MON trcstat_ptracer40_sd         =   1.3708106773919842E-04
(PID.TID 0000.0001) %MON trcstat_ptracer40_del2       =   0.0000000000000000E+00
(PID.TID 0000.0001) %MON trcstat_ptracer41_max        =   8.7419459121900974E-04
(PID.TID 0000.0001) %MON trcstat_ptracer41_min        =   1.9693622911396925E-36
(PID.TID 0000.0001) %MON trcstat_ptracer41_mean       =   2.6066315326709799E-05
(PID.TID 0000.0001) %MON trcstat_ptracer41_sd         =   1.3665955859178239E-04
(PID.TID 0000.0001) %MON trcstat_ptracer41_del2       =   0.0000000000000000E+00
(PID.TID 0000.0001) %MON trcstat_ptracer42_max        =   8.7415769243190768E-04
(PID.TID 0000.0001) %MON trcstat_ptracer42_min        =   8.3435696679805282E-32
(PID.TID 0000.0001) %MON trcstat_ptracer42_mean       =   2.6066315326711442E-05
(PID.TID 0000.0001) %MON trcstat_ptracer42_sd         =   1.3662472608101008E-04
(PID.TID 0000.0001) %MON trcstat_ptracer42_del2       =   0.0000000000000000E+00
(PID.TID 0000.0001) %MON trcstat_ptracer43_max        =   8.7419459121900974E-04
(PID.TID 0000.0001) %MON trcstat_ptracer43_min        =   1.9693622911396925E-36
(PID.TID 0000.0001) %MON trcstat_ptracer43_mean       =   2.6066315326708769E-05
(PID.TID 0000.0001) %MON trcstat_ptracer43_sd         =   1.3665955859177618E-04
(PID.TID 0000.0001) %MON trcstat_ptracer43_del2       =   0.0000000000000000E+00
(PID.TID 0000.0001) %MON trcstat_ptracer44_max        =   8.7419459121900974E-04
(PID.TID 0000.0001) %MON trcstat_ptracer44_min        =   1.9693622911396925E-36
(PID.TID 0000.0001) %MON trcstat_ptracer44_mean       =   2.6066315326708447E-05
(PID.TID 0000.0001) %MON trcstat_ptracer44_sd         =   1.3665955859177426E-04
(PID.TID 0000.0001) %MON trcstat_ptracer44_del2       =   0.0000000000000000E+00
(PID.TID 0000.0001) %MON trcstat_ptracer45_max        =   8.7419459121900974E-04
(PID.TID 0000.0001) %MON trcstat_ptracer45_min        =   1.9693622911396925E-36
(PID.TID 0000.0001) %MON trcstat_ptracer45_mean       =   2.6066315326709003E-05
(PID.TID 0000.0001) %MON trcstat_ptracer45_sd         =   1.3665955859177756E-04
(PID.TID 0000.0001) %MON trcstat_ptracer45_del2       =   0.0000000000000000E+00
(PID.TID 0000.0001) %MON trcstat_ptracer46_max        =   8.7419459121900974E-04
(PID.TID 0000.0001) %MON trcstat_ptracer46_min        =   1.9693622911396925E-36
(PID.TID 0000.0001) %MON trcstat_ptracer46_mean       =   2.6066315326708979E-05
(PID.TID 0000.0001) %MON trcstat_ptracer46_sd         =   1.3665955859177743E-04
(PID.TID 0000.0001) %MON trcstat_ptracer46_del2       =   0.0000000000000000E+00
(PID.TID 0000.0001) %MON trcstat_ptracer47_max        =   8.7415769292019732E-04
(PID.TID 0000.0001) %MON trcstat_ptracer47_min        =   8.3435696679805282E-32
(PID.TID 0000.0001) %MON trcstat_ptracer47_mean       =   2.6141928827520508E-05
(PID.TID 0000.0001) %MON trcstat_ptracer47_sd         =   1.3707882933304810E-04
(PID.TID 0000.0001) %MON trcstat_ptracer47_del2       =   0.0000000000000000E+00
(PID.TID 0000.0001) %MON trcstat_ptracer48_max        =   8.7419459121900974E-04
(PID.TID 0000.0001) %MON trcstat_ptracer48_min        =   1.9693622911396925E-36
(PID.TID 0000.0001) %MON trcstat_ptracer48_mean       =   2.6066315326713600E-05
(PID.TID 0000.0001) %MON trcstat_ptracer48_sd         =   1.3665955859180532E-04
(PID.TID 0000.0001) %MON trcstat_ptracer48_del2       =   0.0000000000000000E+00
(PID.TID 0000.0001) %MON trcstat_ptracer49_max        =   8.7415769288678557E-04
(PID.TID 0000.0001) %MON trcstat_ptracer49_min        =   8.3435696679805282E-32
(PID.TID 0000.0001) %MON trcstat_ptracer49_mean       =   2.6144011791702694E-05
(PID.TID 0000.0001) %MON trcstat_ptracer49_sd         =   1.3709136646225734E-04
(PID.TID 0000.0001) %MON trcstat_ptracer49_del2       =   0.0000000000000000E+00
(PID.TID 0000.0001) %MON trcstat_ptracer50_max        =   8.7419459124570161E-04
(PID.TID 0000.0001) %MON trcstat_ptracer50_min        =   1.9693622911396925E-36
(PID.TID 0000.0001) %MON trcstat_ptracer50_mean       =   2.6123033710927405E-05
(PID.TID 0000.0001) %MON trcstat_ptracer50_sd         =   1.3700033910661719E-04
(PID.TID 0000.0001) %MON trcstat_ptracer50_del2       =   0.0000000000000000E+00
(PID.TID 0000.0001) %MON trcstat_ptracer51_max        =   8.7415769283426628E-04
(PID.TID 0000.0001) %MON trcstat_ptracer51_min        =   8.3435696679805282E-32
(PID.TID 0000.0001) %MON trcstat_ptracer51_mean       =   2.6098799504608408E-05
(PID.TID 0000.0001) %MON trcstat_ptracer51_sd         =   1.3681947405596112E-04
(PID.TID 0000.0001) %MON trcstat_ptracer51_del2       =   0.0000000000000000E+00
(PID.TID 0000.0001) %MON trcstat_ptracer52_max        =   8.7419459131319167E-04
(PID.TID 0000.0001) %MON trcstat_ptracer52_min        =   1.9693622911396925E-36
(PID.TID 0000.0001) %MON trcstat_ptracer52_mean       =   2.6132683272028658E-05
(PID.TID 0000.0001) %MON trcstat_ptracer52_sd         =   1.3705894156306671E-04
(PID.TID 0000.0001) %MON trcstat_ptracer52_del2       =   0.0000000000000000E+00
(PID.TID 0000.0001) %MON trcstat_ptracer53_max        =   8.7419459121900974E-04
(PID.TID 0000.0001) %MON trcstat_ptracer53_min        =   1.9693622911396925E-36
(PID.TID 0000.0001) %MON trcstat_ptracer53_mean       =   2.6066315326711178E-05
(PID.TID 0000.0001) %MON trcstat_ptracer53_sd         =   1.3665955859179068E-04
(PID.TID 0000.0001) %MON trcstat_ptracer53_del2       =   0.0000000000000000E+00
(PID.TID 0000.0001) %MON trcstat_ptracer54_max        =   8.7415769256738026E-04
(PID.TID 0000.0001) %MON trcstat_ptracer54_min        =   8.3435696679805599E-32
(PID.TID 0000.0001) %MON trcstat_ptracer54_mean       =   2.6066315330497269E-05
(PID.TID 0000.0001) %MON trcstat_ptracer54_sd         =   1.3662472610139354E-04
(PID.TID 0000.0001) %MON trcstat_ptracer54_del2       =   0.0000000000000000E+00
(PID.TID 0000.0001) %MON trcstat_ptracer55_max        =   8.7419459121900974E-04
(PID.TID 0000.0001) %MON trcstat_ptracer55_min        =   1.9693622911396925E-36
(PID.TID 0000.0001) %MON trcstat_ptracer55_mean       =   2.6066315326710639E-05
(PID.TID 0000.0001) %MON trcstat_ptracer55_sd         =   1.3665955859178748E-04
(PID.TID 0000.0001) %MON trcstat_ptracer55_del2       =   0.0000000000000000E+00
(PID.TID 0000.0001) %MON trcstat_ptracer56_max        =   8.7419459121900974E-04
(PID.TID 0000.0001) %MON trcstat_ptracer56_min        =   1.9693622911396925E-36
(PID.TID 0000.0001) %MON trcstat_ptracer56_mean       =   2.6066315326713787E-05
(PID.TID 0000.0001) %MON trcstat_ptracer56_sd         =   1.3665955859180640E-04
(PID.TID 0000.0001) %MON trcstat_ptracer56_del2       =   0.0000000000000000E+00
(PID.TID 0000.0001) %MON trcstat_ptracer57_max        =   8.7419459121900974E-04
(PID.TID 0000.0001) %MON trcstat_ptracer57_min        =   1.9693622911396925E-36
(PID.TID 0000.0001) %MON trcstat_ptracer57_mean       =   2.6066315326712045E-05
(PID.TID 0000.0001) %MON trcstat_ptracer57_sd         =   1.3665955859179594E-04
(PID.TID 0000.0001) %MON trcstat_ptracer57_del2       =   0.0000000000000000E+00
(PID.TID 0000.0001) %MON trcstat_ptracer58_max        =   8.7415769256738026E-04
(PID.TID 0000.0001) %MON trcstat_ptracer58_min        =   8.3435696679805599E-32
(PID.TID 0000.0001) %MON trcstat_ptracer58_mean       =   2.6066315330499363E-05
(PID.TID 0000.0001) %MON trcstat_ptracer58_sd         =   1.3662472610140609E-04
(PID.TID 0000.0001) %MON trcstat_ptracer58_del2       =   0.0000000000000000E+00
(PID.TID 0000.0001) %MON trcstat_ptracer59_max        =   8.7419459121900974E-04
(PID.TID 0000.0001) %MON trcstat_ptracer59_min        =   1.9693622911396925E-36
(PID.TID 0000.0001) %MON trcstat_ptracer59_mean       =   2.6066315326710060E-05
(PID.TID 0000.0001) %MON trcstat_ptracer59_sd         =   1.3665955859178401E-04
(PID.TID 0000.0001) %MON trcstat_ptracer59_del2       =   0.0000000000000000E+00
(PID.TID 0000.0001) %MON trcstat_ptracer60_max        =   8.7415769243190768E-04
(PID.TID 0000.0001) %MON trcstat_ptracer60_min        =   8.3435696679805282E-32
(PID.TID 0000.0001) %MON trcstat_ptracer60_mean       =   2.6066315326712577E-05
(PID.TID 0000.0001) %MON trcstat_ptracer60_sd         =   1.3662472608101691E-04
(PID.TID 0000.0001) %MON trcstat_ptracer60_del2       =   0.0000000000000000E+00
(PID.TID 0000.0001) %MON trcstat_ptracer61_max        =   8.7419459121900974E-04
(PID.TID 0000.0001) %MON trcstat_ptracer61_min        =   1.9693622911396925E-36
(PID.TID 0000.0001) %MON trcstat_ptracer61_mean       =   2.6066315326713746E-05
(PID.TID 0000.0001) %MON trcstat_ptracer61_sd         =   1.3665955859180616E-04
(PID.TID 0000.0001) %MON trcstat_ptracer61_del2       =   0.0000000000000000E+00
(PID.TID 0000.0001) %MON trcstat_ptracer62_max        =   8.7415769243190768E-04
(PID.TID 0000.0001) %MON trcstat_ptracer62_min        =   8.3435696679805282E-32
(PID.TID 0000.0001) %MON trcstat_ptracer62_mean       =   2.6066315326711507E-05
(PID.TID 0000.0001) %MON trcstat_ptracer62_sd         =   1.3662472608101051E-04
(PID.TID 0000.0001) %MON trcstat_ptracer62_del2       =   0.0000000000000000E+00
(PID.TID 0000.0001) %MON trcstat_ptracer63_max        =   8.7419459123109285E-04
(PID.TID 0000.0001) %MON trcstat_ptracer63_min        =   1.9693622911396925E-36
(PID.TID 0000.0001) %MON trcstat_ptracer63_mean       =   2.6095421774815293E-05
(PID.TID 0000.0001) %MON trcstat_ptracer63_sd         =   1.3683384101961080E-04
(PID.TID 0000.0001) %MON trcstat_ptracer63_del2       =   0.0000000000000000E+00
(PID.TID 0000.0001) %MON trcstat_ptracer64_max        =   8.7415769280638439E-04
(PID.TID 0000.0001) %MON trcstat_ptracer64_min        =   8.3435696679805282E-32
(PID.TID 0000.0001) %MON trcstat_ptracer64_mean       =   2.6140205508412005E-05
(PID.TID 0000.0001) %MON trcstat_ptracer64_sd         =   1.3706828393706687E-04
(PID.TID 0000.0001) %MON trcstat_ptracer64_del2       =   0.0000000000000000E+00
(PID.TID 0000.0001) %MON trcstat_ptracer65_max        =   8.7415769243190768E-04
(PID.TID 0000.0001) %MON trcstat_ptracer65_min        =   8.3435696679805282E-32
(PID.TID 0000.0001) %MON trcstat_ptracer65_mean       =   2.6066315326713248E-05
(PID.TID 0000.0001) %MON trcstat_ptracer65_sd         =   1.3662472608102092E-04
(PID.TID 0000.0001) %MON trcstat_ptracer65_del2       =   0.0000000000000000E+00
(PID.TID 0000.0001) %MON trcstat_ptracer66_max        =   8.7415769243190768E-04
(PID.TID 0000.0001) %MON trcstat_ptracer66_min        =   8.3435696679805282E-32
(PID.TID 0000.0001) %MON trcstat_ptracer66_mean       =   2.6066315326712943E-05
(PID.TID 0000.0001) %MON trcstat_ptracer66_sd         =   1.3662472608101911E-04
(PID.TID 0000.0001) %MON trcstat_ptracer66_del2       =   0.0000000000000000E+00
(PID.TID 0000.0001) %MON trcstat_ptracer67_max        =   8.7415769243190768E-04
(PID.TID 0000.0001) %MON trcstat_ptracer67_min        =   8.3435696679805282E-32
(PID.TID 0000.0001) %MON trcstat_ptracer67_mean       =   2.6066315326712411E-05
(PID.TID 0000.0001) %MON trcstat_ptracer67_sd         =   1.3662472608101588E-04
(PID.TID 0000.0001) %MON trcstat_ptracer67_del2       =   0.0000000000000000E+00
(PID.TID 0000.0001) %MON trcstat_ptracer68_max        =   8.7419459125849617E-04
(PID.TID 0000.0001) %MON trcstat_ptracer68_min        =   1.9693622911396925E-36
(PID.TID 0000.0001) %MON trcstat_ptracer68_mean       =   2.6099968909991876E-05
(PID.TID 0000.0001) %MON trcstat_ptracer68_sd         =   1.3686155002814944E-04
(PID.TID 0000.0001) %MON trcstat_ptracer68_del2       =   0.0000000000000000E+00
(PID.TID 0000.0001) %MON trcstat_ptracer69_max        =   8.7419459121900974E-04
(PID.TID 0000.0001) %MON trcstat_ptracer69_min        =   1.9693622911396925E-36
(PID.TID 0000.0001) %MON trcstat_ptracer69_mean       =   2.6066315326714342E-05
(PID.TID 0000.0001) %MON trcstat_ptracer69_sd         =   1.3665955859180974E-04
(PID.TID 0000.0001) %MON trcstat_ptracer69_del2       =   0.0000000000000000E+00
(PID.TID 0000.0001) %MON trcstat_ptracer70_max        =   8.7415769256738026E-04
(PID.TID 0000.0001) %MON trcstat_ptracer70_min        =   8.3435696679805599E-32
(PID.TID 0000.0001) %MON trcstat_ptracer70_mean       =   2.6066315330499184E-05
(PID.TID 0000.0001) %MON trcstat_ptracer70_sd         =   1.3662472610140503E-04
(PID.TID 0000.0001) %MON trcstat_ptracer70_del2       =   0.0000000000000000E+00
(PID.TID 0000.0001) %MON trcstat_ptracer71_max        =   8.7415769256738026E-04
(PID.TID 0000.0001) %MON trcstat_ptracer71_min        =   8.3435696679805599E-32
(PID.TID 0000.0001) %MON trcstat_ptracer71_mean       =   2.6066315330498293E-05
(PID.TID 0000.0001) %MON trcstat_ptracer71_sd         =   1.3662472610139967E-04
(PID.TID 0000.0001) %MON trcstat_ptracer71_del2       =   0.0000000000000000E+00
(PID.TID 0000.0001) %MON trcstat_ptracer72_max        =   8.7415769243190768E-04
(PID.TID 0000.0001) %MON trcstat_ptracer72_min        =   8.3435696679805282E-32
(PID.TID 0000.0001) %MON trcstat_ptracer72_mean       =   2.6066315326711500E-05
(PID.TID 0000.0001) %MON trcstat_ptracer72_sd         =   1.3662472608101043E-04
(PID.TID 0000.0001) %MON trcstat_ptracer72_del2       =   0.0000000000000000E+00
(PID.TID 0000.0001) %MON trcstat_ptracer73_max        =   8.7415769284745527E-04
(PID.TID 0000.0001) %MON trcstat_ptracer73_min        =   8.3435696679805282E-32
(PID.TID 0000.0001) %MON trcstat_ptracer73_mean       =   2.6141318821472917E-05
(PID.TID 0000.0001) %MON trcstat_ptracer73_sd         =   1.3707505775832079E-04
(PID.TID 0000.0001) %MON trcstat_ptracer73_del2       =   0.0000000000000000E+00
(PID.TID 0000.0001) %MON trcstat_ptracer74_max        =   8.7415769256738026E-04
(PID.TID 0000.0001) %MON trcstat_ptracer74_min        =   8.3435696679805599E-32
(PID.TID 0000.0001) %MON trcstat_ptracer74_mean       =   2.6066315330499207E-05
(PID.TID 0000.0001) %MON trcstat_ptracer74_sd         =   1.3662472610140517E-04
(PID.TID 0000.0001) %MON trcstat_ptracer74_del2       =   0.0000000000000000E+00
(PID.TID 0000.0001) %MON trcstat_ptracer75_max        =   8.7415769291894127E-04
(PID.TID 0000.0001) %MON trcstat_ptracer75_min        =   8.3435696679805282E-32
(PID.TID 0000.0001) %MON trcstat_ptracer75_mean       =   2.6148025554585209E-05
(PID.TID 0000.0001) %MON trcstat_ptracer75_sd         =   1.3711565758286269E-04
(PID.TID 0000.0001) %MON trcstat_ptracer75_del2       =   0.0000000000000000E+00
(PID.TID 0000.0001) %MON trcstat_ptracer76_max        =   8.7415769298017712E-04
(PID.TID 0000.0001) %MON trcstat_ptracer76_min        =   8.3435696679805599E-32
(PID.TID 0000.0001) %MON trcstat_ptracer76_mean       =   2.6085975864680176E-05
(PID.TID 0000.0001) %MON trcstat_ptracer76_sd         =   1.3674268271519810E-04
(PID.TID 0000.0001) %MON trcstat_ptracer76_del2       =   0.0000000000000000E+00
(PID.TID 0000.0001) %MON trcstat_ptracer77_max        =   8.7415769243190768E-04
(PID.TID 0000.0001) %MON trcstat_ptracer77_min        =   8.3435696679805282E-32
(PID.TID 0000.0001) %MON trcstat_ptracer77_mean       =   2.6066315326713936E-05
(PID.TID 0000.0001) %MON trcstat_ptracer77_sd         =   1.3662472608102510E-04
(PID.TID 0000.0001) %MON trcstat_ptracer77_del2       =   0.0000000000000000E+00
(PID.TID 0000.0001) %MON trcstat_ptracer78_max        =   8.7415769271108790E-04
(PID.TID 0000.0001) %MON trcstat_ptracer78_min        =   8.3435696679805282E-32
(PID.TID 0000.0001) %MON trcstat_ptracer78_mean       =   2.6072987904786754E-05
(PID.TID 0000.0001) %MON trcstat_ptracer78_sd         =   1.3666486877248878E-04
(PID.TID 0000.0001) %MON trcstat_ptracer78_del2       =   0.0000000000000000E+00
(PID.TID 0000.0001) %MON trcstat_ptracer79_max        =   8.7415769243190768E-04
(PID.TID 0000.0001) %MON trcstat_ptracer79_min        =   8.3435696679805282E-32
(PID.TID 0000.0001) %MON trcstat_ptracer79_mean       =   2.6066315326712709E-05
(PID.TID 0000.0001) %MON trcstat_ptracer79_sd         =   1.3662472608101770E-04
(PID.TID 0000.0001) %MON trcstat_ptracer79_del2       =   0.0000000000000000E+00
(PID.TID 0000.0001) %MON trcstat_ptracer80_max        =   8.7415769243190768E-04
(PID.TID 0000.0001) %MON trcstat_ptracer80_min        =   8.3435696679805282E-32
(PID.TID 0000.0001) %MON trcstat_ptracer80_mean       =   2.6066315326711334E-05
(PID.TID 0000.0001) %MON trcstat_ptracer80_sd         =   1.3662472608100940E-04
(PID.TID 0000.0001) %MON trcstat_ptracer80_del2       =   0.0000000000000000E+00
(PID.TID 0000.0001) %MON trcstat_ptracer81_max        =   8.7415769305716502E-04
(PID.TID 0000.0001) %MON trcstat_ptracer81_min        =   8.3435696679805599E-32
(PID.TID 0000.0001) %MON trcstat_ptracer81_mean       =   2.6109628816548314E-05
(PID.TID 0000.0001) %MON trcstat_ptracer81_sd         =   1.3688453310809373E-04
(PID.TID 0000.0001) %MON trcstat_ptracer81_del2       =   0.0000000000000000E+00
(PID.TID 0000.0001) %MON trcstat_ptracer82_max        =   8.7419459121900974E-04
(PID.TID 0000.0001) %MON trcstat_ptracer82_min        =   1.9693622911396925E-36
(PID.TID 0000.0001) %MON trcstat_ptracer82_mean       =   2.6066315326709921E-05
(PID.TID 0000.0001) %MON trcstat_ptracer82_sd         =   1.3665955859178315E-04
(PID.TID 0000.0001) %MON trcstat_ptracer82_del2       =   0.0000000000000000E+00
(PID.TID 0000.0001) %MON trcstat_ptracer83_max        =   8.7415769256738026E-04
(PID.TID 0000.0001) %MON trcstat_ptracer83_min        =   8.3435696679805599E-32
(PID.TID 0000.0001) %MON trcstat_ptracer83_mean       =   2.6066315330497395E-05
(PID.TID 0000.0001) %MON trcstat_ptracer83_sd         =   1.3662472610139425E-04
(PID.TID 0000.0001) %MON trcstat_ptracer83_del2       =   0.0000000000000000E+00
(PID.TID 0000.0001) %MON trcstat_ptracer84_max        =   8.7419459121900974E-04
(PID.TID 0000.0001) %MON trcstat_ptracer84_min        =   1.9693622911396925E-36
(PID.TID 0000.0001) %MON trcstat_ptracer84_mean       =   2.6066315326708745E-05
(PID.TID 0000.0001) %MON trcstat_ptracer84_sd         =   1.3665955859177607E-04
(PID.TID 0000.0001) %MON trcstat_ptracer84_del2       =   0.0000000000000000E+00
(PID.TID 0000.0001) %MON trcstat_ptracer85_max        =   8.7415769243190768E-04
(PID.TID 0000.0001) %MON trcstat_ptracer85_min        =   8.3435696679805282E-32
(PID.TID 0000.0001) %MON trcstat_ptracer85_mean       =   2.6066315326712364E-05
(PID.TID 0000.0001) %MON trcstat_ptracer85_sd         =   1.3662472608101564E-04
(PID.TID 0000.0001) %MON trcstat_ptracer85_del2       =   0.0000000000000000E+00
(PID.TID 0000.0001) %MON trcstat_ptracer86_max        =   8.7415769293535219E-04
(PID.TID 0000.0001) %MON trcstat_ptracer86_min        =   8.3435696679805599E-32
(PID.TID 0000.0001) %MON trcstat_ptracer86_mean       =   2.6077475706715784E-05
(PID.TID 0000.0001) %MON trcstat_ptracer86_sd         =   1.3669179420341119E-04
(PID.TID 0000.0001) %MON trcstat_ptracer86_del2       =   0.0000000000000000E+00
(PID.TID 0000.0001) %MON trcstat_ptracer87_max        =   8.7419459126701290E-04
(PID.TID 0000.0001) %MON trcstat_ptracer87_min        =   1.9693622911396925E-36
(PID.TID 0000.0001) %MON trcstat_ptracer87_mean       =   2.6125665781047723E-05
(PID.TID 0000.0001) %MON trcstat_ptracer87_sd         =   1.3701632808231149E-04
(PID.TID 0000.0001) %MON trcstat_ptracer87_del2       =   0.0000000000000000E+00
(PID.TID 0000.0001) %MON trcstat_ptracer88_max        =   8.7419459121900974E-04
(PID.TID 0000.0001) %MON trcstat_ptracer88_min        =   1.9693622911396925E-36
(PID.TID 0000.0001) %MON trcstat_ptracer88_mean       =   2.6066315326709823E-05
(PID.TID 0000.0001) %MON trcstat_ptracer88_sd         =   1.3665955859178252E-04
(PID.TID 0000.0001) %MON trcstat_ptracer88_del2       =   0.0000000000000000E+00
(PID.TID 0000.0001) %MON trcstat_ptracer89_max        =   8.7419459121900974E-04
(PID.TID 0000.0001) %MON trcstat_ptracer89_min        =   1.9693622911396925E-36
(PID.TID 0000.0001) %MON trcstat_ptracer89_mean       =   2.6066315326709145E-05
(PID.TID 0000.0001) %MON trcstat_ptracer89_sd         =   1.3665955859177848E-04
(PID.TID 0000.0001) %MON trcstat_ptracer89_del2       =   0.0000000000000000E+00
(PID.TID 0000.0001) %MON trcstat_ptracer90_max        =   8.7415769256738026E-04
(PID.TID 0000.0001) %MON trcstat_ptracer90_min        =   8.3435696679805599E-32
(PID.TID 0000.0001) %MON trcstat_ptracer90_mean       =   2.6066315330499235E-05
(PID.TID 0000.0001) %MON trcstat_ptracer90_sd         =   1.3662472610140528E-04
(PID.TID 0000.0001) %MON trcstat_ptracer90_del2       =   0.0000000000000000E+00
(PID.TID 0000.0001) %MON trcstat_ptracer91_max        =   8.7419459121900974E-04
(PID.TID 0000.0001) %MON trcstat_ptracer91_min        =   1.9693622911396925E-36
(PID.TID 0000.0001) %MON trcstat_ptracer91_mean       =   2.6066315326709592E-05
(PID.TID 0000.0001) %MON trcstat_ptracer91_sd         =   1.3665955859178117E-04
(PID.TID 0000.0001) %MON trcstat_ptracer91_del2       =   0.0000000000000000E+00
(PID.TID 0000.0001) %MON trcstat_ptracer92_max        =   8.7415769271830283E-04
(PID.TID 0000.0001) %MON trcstat_ptracer92_min        =   8.3435696679805282E-32
(PID.TID 0000.0001) %MON trcstat_ptracer92_mean       =   2.6072970567122755E-05
(PID.TID 0000.0001) %MON trcstat_ptracer92_sd         =   1.3666478072932341E-04
(PID.TID 0000.0001) %MON trcstat_ptracer92_del2       =   0.0000000000000000E+00
(PID.TID 0000.0001) %MON trcstat_ptracer93_max        =   8.7415769256738026E-04
(PID.TID 0000.0001) %MON trcstat_ptracer93_min        =   8.3435696679805599E-32
(PID.TID 0000.0001) %MON trcstat_ptracer93_mean       =   2.6066315330497419E-05
(PID.TID 0000.0001) %MON trcstat_ptracer93_sd         =   1.3662472610139438E-04
(PID.TID 0000.0001) %MON trcstat_ptracer93_del2       =   0.0000000000000000E+00
(PID.TID 0000.0001) %MON trcstat_ptracer94_max        =   8.7415769296602763E-04
(PID.TID 0000.0001) %MON trcstat_ptracer94_min        =   8.3435696679805599E-32
(PID.TID 0000.0001) %MON trcstat_ptracer94_mean       =   2.6137743362133744E-05
(PID.TID 0000.0001) %MON trcstat_ptracer94_sd         =   1.3705345132641994E-04
(PID.TID 0000.0001) %MON trcstat_ptracer94_del2       =   0.0000000000000000E+00
(PID.TID 0000.0001) %MON trcstat_ptracer95_max        =   8.7415769243190768E-04
(PID.TID 0000.0001) %MON trcstat_ptracer95_min        =   8.3435696679805282E-32
(PID.TID 0000.0001) %MON trcstat_ptracer95_mean       =   2.6066315326711178E-05
(PID.TID 0000.0001) %MON trcstat_ptracer95_sd         =   1.3662472608100848E-04
(PID.TID 0000.0001) %MON trcstat_ptracer95_del2       =   0.0000000000000000E+00
(PID.TID 0000.0001) %MON trcstat_ptracer96_max        =   8.7419459123352049E-04
(PID.TID 0000.0001) %MON trcstat_ptracer96_min        =   1.9693622911396925E-36
(PID.TID 0000.0001) %MON trcstat_ptracer96_mean       =   2.6103372919852656E-05
(PID.TID 0000.0001) %MON trcstat_ptracer96_sd         =   1.3688166529518073E-04
(PID.TID 0000.0001) %MON trcstat_ptracer96_del2       =   0.0000000000000000E+00
(PID.TID 0000.0001) %MON trcstat_ptracer97_max        =   1.2399032685858886E-07
(PID.TID 0000.0001) %MON trcstat_ptracer97_min        =   1.3829727579957369E-34
(PID.TID 0000.0001) %MON trcstat_ptracer97_mean       =   1.6396963153926764E-08
(PID.TID 0000.0001) %MON trcstat_ptracer97_sd         =   2.9991151773307536E-08
(PID.TID 0000.0001) %MON trcstat_ptracer97_del2       =   0.0000000000000000E+00
(PID.TID 0000.0001) %MON trcstat_ptracer98_max        =   1.2399171249650147E-07
(PID.TID 0000.0001) %MON trcstat_ptracer98_min        =   1.3829727579958637E-34
(PID.TID 0000.0001) %MON trcstat_ptracer98_mean       =   1.6397002518883912E-08
(PID.TID 0000.0001) %MON trcstat_ptracer98_sd         =   2.9991283763400336E-08
(PID.TID 0000.0001) %MON trcstat_ptracer98_del2       =   0.0000000000000000E+00
(PID.TID 0000.0001) // =======================================================
(PID.TID 0000.0001) // End MONITOR ptracers field statistics
(PID.TID 0000.0001) // =======================================================
 Computing Diagnostic #    140  TRAC01       Counter:       1   Parms: SMR     MR      
 Computing Diagnostic #    152  TRAC02       Counter:       1   Parms: SMR     MR      
 Computing Diagnostic #    164  TRAC03       Counter:       1   Parms: SMR     MR      
 Computing Diagnostic #    176  TRAC04       Counter:       1   Parms: SMR     MR      
 Computing Diagnostic #    188  TRAC05       Counter:       1   Parms: SMR     MR      
 Computing Diagnostic #    200  TRAC06       Counter:       1   Parms: SMR     MR      
 Computing Diagnostic #    212  TRAC07       Counter:       1   Parms: SMR     MR      
 Computing Diagnostic #    224  TRAC08       Counter:       1   Parms: SMR     MR      
 Computing Diagnostic #    236  TRAC09       Counter:       1   Parms: SMR     MR      
 Computing Diagnostic #    248  TRAC10       Counter:       1   Parms: SMR     MR      
 Computing Diagnostic #    260  TRAC11       Counter:       1   Parms: SMR     MR      
 Computing Diagnostic #    272  TRAC12       Counter:       1   Parms: SMR     MR      
 Computing Diagnostic #    284  TRAC13       Counter:       1   Parms: SMR     MR      
 Computing Diagnostic #    296  TRAC14       Counter:       1   Parms: SMR     MR      
 Computing Diagnostic #    308  TRAC15       Counter:       1   Parms: SMR     MR      
 Computing Diagnostic #    320  TRAC16       Counter:       1   Parms: SMR     MR      
 Computing Diagnostic #    332  TRAC17       Counter:       1   Parms: SMR     MR      
 Computing Diagnostic #    344  TRAC18       Counter:       1   Parms: SMR     MR      
 Computing Diagnostic #    356  TRAC19       Counter:       1   Parms: SMR     MR      
 Computing Diagnostic #    368  TRAC20       Counter:       1   Parms: SMR     MR      
 Computing Diagnostic #    380  TRAC21       Counter:       1   Parms: SMR     MR      
 Computing Diagnostic #    392  TRAC22       Counter:       1   Parms: SMR     MR      
 Computing Diagnostic #    404  TRAC23       Counter:       1   Parms: SMR     MR      
 Computing Diagnostic #    416  TRAC24       Counter:       1   Parms: SMR     MR      
 Computing Diagnostic #    428  TRAC25       Counter:       1   Parms: SMR     MR      
 Computing Diagnostic #    440  TRAC26       Counter:       1   Parms: SMR     MR      
 Computing Diagnostic #    452  TRAC27       Counter:       1   Parms: SMR     MR      
 Computing Diagnostic #    464  TRAC28       Counter:       1   Parms: SMR     MR      
 Computing Diagnostic #    476  TRAC29       Counter:       1   Parms: SMR     MR      
 Computing Diagnostic #    488  TRAC30       Counter:       1   Parms: SMR     MR      
 Computing Diagnostic #    500  TRAC31       Counter:       1   Parms: SMR     MR      
 Computing Diagnostic #    512  TRAC32       Counter:       1   Parms: SMR     MR      
 Computing Diagnostic #    524  TRAC33       Counter:       1   Parms: SMR     MR      
 Computing Diagnostic #    536  TRAC34       Counter:       1   Parms: SMR     MR      
 Computing Diagnostic #    548  TRAC35       Counter:       1   Parms: SMR     MR      
 Computing Diagnostic #    560  TRAC36       Counter:       1   Parms: SMR     MR      
 Computing Diagnostic #    572  TRAC37       Counter:       1   Parms: SMR     MR      
 Computing Diagnostic #    584  TRAC38       Counter:       1   Parms: SMR     MR      
 Computing Diagnostic #    596  TRAC39       Counter:       1   Parms: SMR     MR      
 Computing Diagnostic #    608  TRAC40       Counter:       1   Parms: SMR     MR      
 Computing Diagnostic #    620  TRAC41       Counter:       1   Parms: SMR     MR      
 Computing Diagnostic #    632  TRAC42       Counter:       1   Parms: SMR     MR      
 Computing Diagnostic #    644  TRAC43       Counter:       1   Parms: SMR     MR      
 Computing Diagnostic #    656  TRAC44       Counter:       1   Parms: SMR     MR      
 Computing Diagnostic #    668  TRAC45       Counter:       1   Parms: SMR     MR      
 Computing Diagnostic #    680  TRAC46       Counter:       1   Parms: SMR     MR      
 Computing Diagnostic #    692  TRAC47       Counter:       1   Parms: SMR     MR      
 Computing Diagnostic #    704  TRAC48       Counter:       1   Parms: SMR     MR      
 Computing Diagnostic #    716  TRAC49       Counter:       1   Parms: SMR     MR      
 Computing Diagnostic #    728  TRAC50       Counter:       1   Parms: SMR     MR      
 Computing Diagnostic #    740  TRAC51       Counter:       1   Parms: SMR     MR      
 Computing Diagnostic #    752  TRAC52       Counter:       1   Parms: SMR     MR      
 Computing Diagnostic #    764  TRAC53       Counter:       1   Parms: SMR     MR      
 Computing Diagnostic #    776  TRAC54       Counter:       1   Parms: SMR     MR      
 Computing Diagnostic #    788  TRAC55       Counter:       1   Parms: SMR     MR      
 Computing Diagnostic #    800  TRAC56       Counter:       1   Parms: SMR     MR      
 Computing Diagnostic #    812  TRAC57       Counter:       1   Parms: SMR     MR      
 Computing Diagnostic #    824  TRAC58       Counter:       1   Parms: SMR     MR      
 Computing Diagnostic #    836  TRAC59       Counter:       1   Parms: SMR     MR      
 Computing Diagnostic #    848  TRAC60       Counter:       1   Parms: SMR     MR      
 Computing Diagnostic #    860  TRAC61       Counter:       1   Parms: SMR     MR      
 Computing Diagnostic #    872  TRAC62       Counter:       1   Parms: SMR     MR      
 Computing Diagnostic #    884  TRAC63       Counter:       1   Parms: SMR     MR      
 Computing Diagnostic #    896  TRAC64       Counter:       1   Parms: SMR     MR      
 Computing Diagnostic #    908  TRAC65       Counter:       1   Parms: SMR     MR      
 Computing Diagnostic #    920  TRAC66       Counter:       1   Parms: SMR     MR      
 Computing Diagnostic #    932  TRAC67       Counter:       1   Parms: SMR     MR      
 Computing Diagnostic #    944  TRAC68       Counter:       1   Parms: SMR     MR      
 Computing Diagnostic #    956  TRAC69       Counter:       1   Parms: SMR     MR      
 Computing Diagnostic #    968  TRAC70       Counter:       1   Parms: SMR     MR      
 Computing Diagnostic #    980  TRAC71       Counter:       1   Parms: SMR     MR      
 Computing Diagnostic #    992  TRAC72       Counter:       1   Parms: SMR     MR      
 Computing Diagnostic #   1004  TRAC73       Counter:       1   Parms: SMR     MR      
 Computing Diagnostic #   1016  TRAC74       Counter:       1   Parms: SMR     MR      
 Computing Diagnostic #   1028  TRAC75       Counter:       1   Parms: SMR     MR      
 Computing Diagnostic #   1040  TRAC76       Counter:       1   Parms: SMR     MR      
 Computing Diagnostic #   1052  TRAC77       Counter:       1   Parms: SMR     MR      
 Computing Diagnostic #   1064  TRAC78       Counter:       1   Parms: SMR     MR      
 Computing Diagnostic #   1076  TRAC79       Counter:       1   Parms: SMR     MR      
 Computing Diagnostic #   1088  TRAC80       Counter:       1   Parms: SMR     MR      
 Computing Diagnostic #   1100  TRAC81       Counter:       1   Parms: SMR     MR      
 Computing Diagnostic #   1112  TRAC82       Counter:       1   Parms: SMR     MR      
 Computing Diagnostic #   1124  TRAC83       Counter:       1   Parms: SMR     MR      
 Computing Diagnostic #   1136  TRAC84       Counter:       1   Parms: SMR     MR      
 Computing Diagnostic #   1148  TRAC85       Counter:       1   Parms: SMR     MR      
 Computing Diagnostic #   1160  TRAC86       Counter:       1   Parms: SMR     MR      
 Computing Diagnostic #   1172  TRAC87       Counter:       1   Parms: SMR     MR      
 Computing Diagnostic #   1184  TRAC88       Counter:       1   Parms: SMR     MR      
 Computing Diagnostic #   1196  TRAC89       Counter:       1   Parms: SMR     MR      
 Computing Diagnostic #   1208  TRAC90       Counter:       1   Parms: SMR     MR      
 Computing Diagnostic #   1220  TRAC91       Counter:       1   Parms: SMR     MR      
 Computing Diagnostic #   1232  TRAC92       Counter:       1   Parms: SMR     MR      
 Computing Diagnostic #   1244  TRAC93       Counter:       1   Parms: SMR     MR      
 Computing Diagnostic #   1256  TRAC94       Counter:       1   Parms: SMR     MR      
 Computing Diagnostic #   1268  TRAC95       Counter:       1   Parms: SMR     MR      
 Computing Diagnostic #   1280  TRAC96       Counter:       1   Parms: SMR     MR      
 Computing Diagnostic #   1292  TRAC97       Counter:       1   Parms: SMR     MR      
 Computing Diagnostic #   1304  TRAC98       Counter:       1   Parms: SMR     MR      
(PID.TID 0000.0001) // =======================================================
(PID.TID 0000.0001) // Begin MONITOR EXF statistics
(PID.TID 0000.0001) // =======================================================
(PID.TID 0000.0001) %MON exf_tsnumber                 =                     2
(PID.TID 0000.0001) %MON exf_time_sec                 =   7.2000000000000000E+03
(PID.TID 0000.0001) %MON exf_ustress_max              =   0.0000000000000000E+00
(PID.TID 0000.0001) %MON exf_ustress_min              =   0.0000000000000000E+00
(PID.TID 0000.0001) %MON exf_ustress_mean             =   0.0000000000000000E+00
(PID.TID 0000.0001) %MON exf_ustress_sd               =   0.0000000000000000E+00
(PID.TID 0000.0001) %MON exf_ustress_del2             =   0.0000000000000000E+00
(PID.TID 0000.0001) %MON exf_vstress_max              =   0.0000000000000000E+00
(PID.TID 0000.0001) %MON exf_vstress_min              =   0.0000000000000000E+00
(PID.TID 0000.0001) %MON exf_vstress_mean             =   0.0000000000000000E+00
(PID.TID 0000.0001) %MON exf_vstress_sd               =   0.0000000000000000E+00
(PID.TID 0000.0001) %MON exf_vstress_del2             =   0.0000000000000000E+00
(PID.TID 0000.0001) %MON exf_hflux_max                =   0.0000000000000000E+00
(PID.TID 0000.0001) %MON exf_hflux_min                =   0.0000000000000000E+00
(PID.TID 0000.0001) %MON exf_hflux_mean               =   0.0000000000000000E+00
(PID.TID 0000.0001) %MON exf_hflux_sd                 =   0.0000000000000000E+00
(PID.TID 0000.0001) %MON exf_hflux_del2               =   0.0000000000000000E+00
(PID.TID 0000.0001) %MON exf_sflux_max                =   0.0000000000000000E+00
(PID.TID 0000.0001) %MON exf_sflux_min                =   0.0000000000000000E+00
(PID.TID 0000.0001) %MON exf_sflux_mean               =   0.0000000000000000E+00
(PID.TID 0000.0001) %MON exf_sflux_sd                 =   0.0000000000000000E+00
(PID.TID 0000.0001) %MON exf_sflux_del2               =   0.0000000000000000E+00
(PID.TID 0000.0001) %MON exf_uwind_max                =   0.0000000000000000E+00
(PID.TID 0000.0001) %MON exf_uwind_min                =   0.0000000000000000E+00
(PID.TID 0000.0001) %MON exf_uwind_mean               =   0.0000000000000000E+00
(PID.TID 0000.0001) %MON exf_uwind_sd                 =   0.0000000000000000E+00
(PID.TID 0000.0001) %MON exf_uwind_del2               =   0.0000000000000000E+00
(PID.TID 0000.0001) %MON exf_vwind_max                =   0.0000000000000000E+00
(PID.TID 0000.0001) %MON exf_vwind_min                =   0.0000000000000000E+00
(PID.TID 0000.0001) %MON exf_vwind_mean               =   0.0000000000000000E+00
(PID.TID 0000.0001) %MON exf_vwind_sd                 =   0.0000000000000000E+00
(PID.TID 0000.0001) %MON exf_vwind_del2               =   0.0000000000000000E+00
(PID.TID 0000.0001) %MON exf_wspeed_max               =   0.0000000000000000E+00
(PID.TID 0000.0001) %MON exf_wspeed_min               =   0.0000000000000000E+00
(PID.TID 0000.0001) %MON exf_wspeed_mean              =   0.0000000000000000E+00
(PID.TID 0000.0001) %MON exf_wspeed_sd                =   0.0000000000000000E+00
(PID.TID 0000.0001) %MON exf_wspeed_del2              =   0.0000000000000000E+00
(PID.TID 0000.0001) %MON exf_evap_max                 =   0.0000000000000000E+00
(PID.TID 0000.0001) %MON exf_evap_min                 =   0.0000000000000000E+00
(PID.TID 0000.0001) %MON exf_evap_mean                =   0.0000000000000000E+00
(PID.TID 0000.0001) %MON exf_evap_sd                  =   0.0000000000000000E+00
(PID.TID 0000.0001) %MON exf_evap_del2                =   0.0000000000000000E+00
(PID.TID 0000.0001) // =======================================================
(PID.TID 0000.0001) // End MONITOR EXF statistics
(PID.TID 0000.0001) // =======================================================
 Local pointing vectors
 no(2) =   0.27363063147685535      -0.12470066308196398       0.95371695074822704     
 ea(2) =   0.41469324265623930       0.90996127087654310        0.0000000000000000     
 up(2) =   0.86784548855935806      -0.39549997488200311      -0.30070579950427312     
 CDOM           1           1   5.0827738481363585E-003   100.00000000000000        2.0137527074704766     
 CDOM           1           2   5.0827738481363585E-003   100.00000000000000        1.4190675485932573     
 CDOM           1           3   5.0827738481363585E-003   100.00000000000000        1.0000000000000000     
 CDOM           1           4   5.0827738481363585E-003   100.00000000000000       0.70468808971871344     
 CDOM           1           5   5.0827738481363585E-003   100.00000000000000       0.49658530379140947     
 CDOM           1           6   5.0827738481363585E-003   100.00000000000000       0.34993774911115533     
 CDOM           1           7   5.0827738481363585E-003   100.00000000000000       0.24659696394160643     
 CDOM           1           8   5.0827738481363585E-003   100.00000000000000       0.17377394345044514     
 CDOM           1           9   5.0827738481363585E-003   100.00000000000000       0.12245642825298191     
 CDOM           1          10   5.0827738481363585E-003   100.00000000000000        8.6293586499370495E-002
 CDOM           1          11   5.0827738481363585E-003   100.00000000000000        6.0810062625217952E-002
 CDOM           1          12   5.0827738481363585E-003   100.00000000000000        4.2852126867040187E-002
 CDOM           1          13   5.0827738481363585E-003   100.00000000000000        3.0197383422318501E-002
 ac           1   3.1515947000230023E-005   3.0400000000000000E-002
 ac           2   7.1413735389430925E-005   3.8500000000000000E-002
 ac           3   3.1889997528566401E-005   3.0400000000000000E-002
 ac           4   5.4787865165267236E-005   3.0400000000000000E-002
 ac           5   5.0446054634584960E-005   2.9200000000000000E-002
 ac           6   2.6343497207542501E-005   3.8500000000000000E-002
 ac           7   7.3667982702279303E-005   2.4500000000000001E-002
 ac           8   4.0423873299732072E-005   2.4500000000000001E-002
 ac           9   2.0901908881637945E-005   2.9200000000000000E-002
 ac          10   5.7773532146621768E-005   2.9200000000000000E-002
 ac          11   1.8388069785413397E-005   3.0400000000000000E-002
 ac          12   3.8166413828857026E-005   2.4500000000000001E-002
 ac          13   3.1901437970588742E-005   3.0400000000000000E-002
 ac          14   3.9485723071937251E-005   2.4500000000000001E-002
 ac          15   7.1492905161325219E-005   3.0400000000000000E-002
 ac          16   3.1806939845791985E-005   3.0400000000000000E-002
 ac          17   3.1570478945980360E-005   3.0400000000000000E-002
 ac          18   2.1652585417058405E-005   2.9200000000000000E-002
 ac          19   3.1679136330918701E-005   3.0400000000000000E-002
 ac          20   3.1131840833935658E-005   3.0400000000000000E-002
 ac          21   3.1821333755653742E-005   3.0400000000000000E-002
 ac          22   8.0429169150080903E-005   3.0400000000000000E-002
 ac          23   2.7207699003222280E-005   3.8500000000000000E-002
 ac          24   3.1407462649390172E-005   3.0400000000000000E-002
 ac          25   3.8280799401716094E-005   2.4500000000000001E-002
 ac          26   4.0411957412935556E-005   2.4500000000000001E-002
 ac          27   3.8201968952023816E-005   2.4500000000000001E-002
 ac          28   2.6299842412722421E-005   3.8500000000000000E-002
 ac          29   7.9319281673636486E-005   3.0400000000000000E-002
 ac          30   2.1387626976161984E-005   2.9200000000000000E-002
 ac          31   8.2925986975909146E-005   3.0400000000000000E-002
 ac          32   6.3441129684369408E-005   3.0400000000000000E-002
 ac          33   3.1610682017797419E-005   3.0400000000000000E-002
 ac          34   4.7575540276145190E-005   2.9200000000000000E-002
 ac          35   2.1691260791393149E-005   2.9200000000000000E-002
 ac          36   3.1762328444930899E-005   3.0400000000000000E-002
 ac          37   1.7994617951829885E-005   3.0400000000000000E-002
 ac          38   1.8154410458818385E-005   3.0400000000000000E-002
 ac          39   2.1632025254001654E-005   2.9200000000000000E-002
 ac          40   3.1692574701251649E-005   3.0400000000000000E-002
 ac          41   2.1558124662617403E-005   2.9200000000000000E-002
 ac          42   3.1913361243301092E-005   3.0400000000000000E-002
 ac          43   1.7852552730586847E-005   3.0400000000000000E-002
 ac          44   3.1565515721994664E-005   3.0400000000000000E-002
 ac          45   1.1186854438541708E-004   2.4500000000000001E-002
 ac          46   8.0484207730619229E-005   3.0400000000000000E-002
 ac          47   3.1551583082265688E-005   3.0400000000000000E-002
 ac          48   3.1806744960744337E-005   3.0400000000000000E-002
 ac          49   3.1243134422259191E-005   3.0400000000000000E-002
 ac          50   3.3171592425656530E-005   3.0400000000000000E-002
 ac          51   1.7444588448940231E-005   3.0400000000000000E-002
 ac          52   3.1603754973239296E-005   3.0400000000000000E-002
 ac          53   3.1893015430365435E-005   3.0400000000000000E-002
 ac          54   3.1183800479850261E-005   3.0400000000000000E-002
 ac          55   8.0614314983962332E-005   3.0400000000000000E-002
 ac          56   3.1541163580971998E-005   3.0400000000000000E-002
 ac          57   8.7035601113301180E-005   3.0400000000000000E-002
 ac          58   3.1815194887352729E-005   3.0400000000000000E-002
 ac          59   3.1260548758319427E-005   3.0400000000000000E-002
 ac          60   3.1638663177149031E-005   3.0400000000000000E-002
 ac          61   3.1791743827352022E-005   3.0400000000000000E-002
 ac          62   3.1918497198223492E-005   3.0400000000000000E-002
 ac          63   3.9508983509785950E-005   3.0400000000000000E-002
 ac          64   2.1664810428889323E-005   2.9200000000000000E-002
 ac          65   3.1916389895442020E-005   3.0400000000000000E-002
 ac          66   2.6831786109118468E-005   3.8500000000000000E-002
 ac          67   3.1902926534867086E-005   3.0400000000000000E-002
 ac          68   3.1859577536680780E-005   3.0400000000000000E-002
 ac          69   6.3933747923695225E-005   3.0400000000000000E-002
 ac          70   2.7520716555282877E-005   3.8500000000000000E-002
 ac          71   3.6641236387441750E-005   2.4500000000000001E-002
 ac          72   3.1576804137233889E-005   3.0400000000000000E-002
 ac          73   2.6842013506408880E-005   3.8500000000000000E-002
 ac          74   3.1645385129999031E-005   3.0400000000000000E-002
 ac          75   3.1809787995656966E-005   3.0400000000000000E-002
 ac          76   7.6729077811753084E-005   3.0400000000000000E-002
 ac          77   3.1230673237643501E-005   3.0400000000000000E-002
 ac          78   1.4175621557137386E-004   2.4500000000000001E-002
 abs           1           1   1.0299423359676307        7.9781168723321548E-003   3.8013752878192321E-003   6.3000000000000000E-003   1.0235449598144724        9.4222587977602906E-005   3.1535651807991956E-006
 abs           1           2  0.72650638988831717        6.1555821707879686E-003   2.9012864463357712E-003   5.1000000000000004E-003  0.72127994247287797        1.2390189060371300E-004   2.5455248354817034E-006
 abs           1           3  0.51671305571999482        4.8466980540712492E-003   2.2512482722445485E-003   8.3000000000000001E-003  0.50827738481363582        1.3365097572033211E-004   2.0199306386818377E-006
 abs           1           4  0.37018631809541286        3.9504131724437718E-003   1.8012663997561717E-003   1.1900000000000001E-002  0.35817701935154445        1.0764982089806311E-004   1.6489229703525208E-006
 abs           1           5  0.27398253088667879        3.2559265218794222E-003   1.4512788417888006E-003   2.1499999999999998E-002  0.25240307954798247        7.8121894551461842E-005   1.3294441448467197E-006
 abs           1           6  0.21861317071127279        2.6569409668806814E-003   1.1512574577616343E-003   4.0700000000000000E-002  0.17786544396578824        4.6654945553799563E-005   1.0717999307291385E-006
 abs           1           7  0.18037135209091407        2.2647736259686089E-003   9.5125917571754694E-004   5.5000000000000000E-002  0.12533965993522217        3.0819257094475745E-005   8.7289859743036562E-007
 abs           1           8  0.17324522420549154        1.9622365680506469E-003   8.0123282751178211E-004   8.4900000000000003E-002   8.8325365525744895E-002   1.9145520561940654E-005   7.1315918467746518E-007
 abs           1           9  0.26176001842364416        1.7567160194412693E-003   7.0120559015559257E-004  0.19950000000000001        6.2241833106044267E-002   1.7611286290826686E-005   5.7403130905397124E-007
 abs           1          10  0.32888101590086738        1.5488109258239443E-003   6.0117219543575663E-004  0.28499999999999998        4.3861078472089303E-002   1.9474699769547053E-005   4.6272900855517611E-007
 abs           1          11  0.38212938208176117        1.2402085397980531E-003   4.5113200807684776E-004  0.35120000000000001        3.0908379601499197E-002   2.0627350286172726E-005   3.7512997575519844E-007
 abs           1          12  0.47774069387291068        1.0361637843040550E-003   3.5112221019931579E-004  0.45590000000000003        2.1780766977681328E-002   5.9619783326063871E-005   3.0711190322815692E-007
 abs           1          13  0.65865684805401969        1.0235773901904842E-003   3.5108031839868018E-004  0.64329999999999998        1.5348647074110688E-002   7.9526108866072665E-006   2.4836902240934841E-007
 CDOM           2           1   5.0995199866778491E-003   100.00000000000000        2.0137527074704766     
 CDOM           2           2   5.0995199866778491E-003   100.00000000000000        1.4190675485932573     
 CDOM           2           3   5.0995199866778491E-003   100.00000000000000        1.0000000000000000     
 CDOM           2           4   5.0995199866778491E-003   100.00000000000000       0.70468808971871344     
 CDOM           2           5   5.0995199866778491E-003   100.00000000000000       0.49658530379140947     
 CDOM           2           6   5.0995199866778491E-003   100.00000000000000       0.34993774911115533     
 CDOM           2           7   5.0995199866778491E-003   100.00000000000000       0.24659696394160643     
 CDOM           2           8   5.0995199866778491E-003   100.00000000000000       0.17377394345044514     
 CDOM           2           9   5.0995199866778491E-003   100.00000000000000       0.12245642825298191     
 CDOM           2          10   5.0995199866778491E-003   100.00000000000000        8.6293586499370495E-002
 CDOM           2          11   5.0995199866778491E-003   100.00000000000000        6.0810062625217952E-002
 CDOM           2          12   5.0995199866778491E-003   100.00000000000000        4.2852126867040187E-002
 CDOM           2          13   5.0995199866778491E-003   100.00000000000000        3.0197383422318501E-002
 abs           2           1   1.0334977056369297        8.6456561725871579E-003   3.8035137117655164E-003   6.3000000000000000E-003   1.0269172179972328        2.7644971315989410E-004   4.0379265369398038E-006
 abs           2           2  0.72911304511608543        6.7874688745497430E-003   2.9033022168329240E-003   5.1000000000000004E-003  0.72365633264972562        3.5345309428590850E-004   3.2593720739350701E-006
 abs           2           3  0.51863079538530743        5.4696980269708512E-003   2.2532346716745066E-003   8.3000000000000001E-003  0.50995199866778496        3.7621033320464338E-004   2.5863843177784365E-006
 abs           2           4  0.37157286714953991        4.5777636474352871E-003   1.8032701899708926E-003   1.1900000000000001E-002  0.35935709978944130        3.1365602596161030E-004   2.1113341369619890E-006
 abs           2           5  0.27496403741792302        3.8996930073333866E-003   1.4533299158477461E-003   2.1499999999999998E-002  0.25323466817747842        2.2766697729667462E-004   1.7022631479256035E-006
 abs           2           6  0.21929603674125867        3.3184149183486406E-003   1.1533396141913625E-003   4.0700000000000000E-002  0.17845145456853956        1.4320980553007796E-004   1.3723671890252927E-006
 abs           2           7  0.18084778663430182        2.9572892681899864E-003   9.5341399936803826E-004   5.5000000000000000E-002  0.12575261462742990        9.4054319363146528E-005   1.1176875087542529E-006
 abs           2           8  0.17357520499143894        2.6611454328072026E-003   8.0338922292483273E-004   8.4900000000000003E-002   8.8616369778937137E-002   5.7922060487574224E-005   9.1315201423606024E-007
 abs           2           9  0.26200067863442983        2.4511738285057424E-003   7.0333924371237687E-004  0.19950000000000001        6.2446900337326333E-002   5.3043288907041018E-005   7.3500819642989234E-007
 abs           2          10  0.32906395676521910        2.2320624704413425E-003   6.0326498484972169E-004  0.28499999999999998        4.4005586907565369E-002   5.7777364511632093E-005   5.9249314218495816E-007
 abs           2          11  0.38227032200910049        1.9133962989508469E-003   4.5318375928457165E-004  0.35120000000000001        3.1010212974843066E-002   5.9628705741207945E-005   4.8032851615885243E-007
 abs           2          12  0.47792813728343608        1.7009138183952650E-003   3.5315105570713824E-004  0.45590000000000003        2.1852527743012631E-002   1.7521630444044547E-004   3.9323598300917038E-007
 abs           2          13  0.65872120547422364        1.6639094264125119E-003   3.5303338290239902E-004  0.64329999999999998        1.5399216030748756E-002   2.1671423770502890E-005   3.1801970437989954E-007
 CDOM           3           1   5.1100939458874972E-003   100.00000000000000        2.0137527074704766     
 CDOM           3           2   5.1100939458874972E-003   100.00000000000000        1.4190675485932573     
 CDOM           3           3   5.1100939458874972E-003   100.00000000000000        1.0000000000000000     
 CDOM           3           4   5.1100939458874972E-003   100.00000000000000       0.70468808971871344     
 CDOM           3           5   5.1100939458874972E-003   100.00000000000000       0.49658530379140947     
 CDOM           3           6   5.1100939458874972E-003   100.00000000000000       0.34993774911115533     
 CDOM           3           7   5.1100939458874972E-003   100.00000000000000       0.24659696394160643     
 CDOM           3           8   5.1100939458874972E-003   100.00000000000000       0.17377394345044514     
 CDOM           3           9   5.1100939458874972E-003   100.00000000000000       0.12245642825298191     
 CDOM           3          10   5.1100939458874972E-003   100.00000000000000        8.6293586499370495E-002
 CDOM           3          11   5.1100939458874972E-003   100.00000000000000        6.0810062625217952E-002
 CDOM           3          12   5.1100939458874972E-003   100.00000000000000        4.2852126867040187E-002
 CDOM           3          13   5.1100939458874972E-003   100.00000000000000        3.0197383422318501E-002
 abs           3           1   1.0357479004581562        9.0961471301745454E-003   3.8048915755118503E-003   6.3000000000000000E-003   1.0290465518959440        3.9702054147454819E-004   4.3280207377371500E-006
 abs           3           2  0.73076130923667237        7.2155488411033567E-003   2.9046087654067427E-003   5.1000000000000004E-003  0.72515684888718157        5.0096681641161468E-004   3.4935330791538431E-006
 abs           3           3  0.51984181015167719        5.8917773279785063E-003   2.2545213545803362E-003   8.3000000000000001E-003  0.51100939458874972        5.2964336663793323E-004   2.7721962895309854E-006
 abs           3           4  0.37245322810890596        5.0020756728548360E-003   1.8045640006381924E-003   1.1900000000000001E-002  0.36010223410106229        4.4873099046446093E-004   2.2630173792089675E-006
 abs           3           5  0.27558755718267869        4.3360037486496359E-003   1.4546578997350049E-003   2.1499999999999998E-002  0.25375975545211854        3.2597717279816469E-004   1.8245577619872301E-006
 abs           3           6  0.21973293487649312        3.7716353254118799E-003   1.1547112505845142E-003   4.0700000000000000E-002  0.17882147731704129        2.0998659815533603E-004   1.4709612964858288E-006
 abs           3           7  0.18115233036914638        3.4366232916916758E-003   9.5485704508640817E-004   5.5000000000000000E-002  0.12601336525122406        1.3776713309721203E-004   1.1979848251187472E-006
 abs           3           8  0.17378553394533497        3.1484547367357243E-003   8.0485042510281609E-004   8.4900000000000003E-002   8.8800117637911596E-002   8.4437552406856862E-005   9.7875501650787856E-007
 abs           3           9  0.26215426115895341        2.9370831186828518E-003   7.0479270586291866E-004  0.19950000000000001        6.2576385265056947E-002   7.7088080971328456E-005   7.8781292513712180E-007
 abs           3          10  0.32918089385495231        2.7113807226317953E-003   6.0469682637754197E-004  0.28499999999999998        4.4096833393935220E-002   8.3425401765118809E-005   6.3505925204051651E-007
 abs           3          11  0.38236004082569208        2.3876522190486799E-003   4.5459779689994143E-004  0.35120000000000001        3.1074513287016582E-002   8.5012702221740627E-005   5.1483645377004011E-007
 abs           3          12  0.47805018406922239        2.1685829311325964E-003   3.5454472075109508E-004  0.45590000000000003        2.1897839407166501E-002   2.5192317506902512E-004   4.2148698687767015E-007
 abs           3          13  0.65876153060211418        2.1146176100240530E-003   3.5437542841816692E-004  0.64329999999999998        1.5431146620803323E-002   3.0043114318100762E-005   3.4086699274335072E-007
 CDOM           4           1   5.1090191420107168E-003   100.00000000000000        2.0137527074704766     
 CDOM           4           2   5.1090191420107168E-003   100.00000000000000        1.4190675485932573     
 CDOM           4           3   5.1090191420107168E-003   100.00000000000000        1.0000000000000000     
 CDOM           4           4   5.1090191420107168E-003   100.00000000000000       0.70468808971871344     
 CDOM           4           5   5.1090191420107168E-003   100.00000000000000       0.49658530379140947     
 CDOM           4           6   5.1090191420107168E-003   100.00000000000000       0.34993774911115533     
 CDOM           4           7   5.1090191420107168E-003   100.00000000000000       0.24659696394160643     
 CDOM           4           8   5.1090191420107168E-003   100.00000000000000       0.17377394345044514     
 CDOM           4           9   5.1090191420107168E-003   100.00000000000000       0.12245642825298191     
 CDOM           4          10   5.1090191420107168E-003   100.00000000000000        8.6293586499370495E-002
 CDOM           4          11   5.1090191420107168E-003   100.00000000000000        6.0810062625217952E-002
 CDOM           4          12   5.1090191420107168E-003   100.00000000000000        4.2852126867040187E-002
 CDOM           4          13   5.1090191420107168E-003   100.00000000000000        3.0197383422318501E-002
 abs           4           1   1.0355671821541672        9.2462604134836892E-003   3.8053626835267613E-003   6.3000000000000000E-003   1.0288301129742572        4.3239558038548774E-004   4.6735995245019568E-006
 abs           4           2  0.73065253198749336        7.3575008627294542E-003   2.9050534160958352E-003   5.1000000000000004E-003  0.72500432695691752        5.4443254991392253E-004   3.7724806619345856E-006
 abs           4           3  0.51977936721440010        6.0307023950743272E-003   2.2549550558667903E-003   8.3000000000000001E-003  0.51090191420107167        5.7445946592062601E-004   2.9935474078509267E-006
 abs           4           4  0.37241701366934704        5.1414518602042967E-003   1.8049992853597914E-003   1.1900000000000001E-002  0.36002649395198721        4.8807600519015299E-004   2.4437121696742259E-006
 abs           4           5  0.27556360186710105        4.4783266473724494E-003   1.4551010262469461E-003   2.1499999999999998E-002  0.25370638227115178        3.5524935301245648E-004   1.9702429367998444E-006
 abs           4           6  0.21971567519638618        3.9176745147798762E-003   1.1551630603768722E-003   4.0700000000000000E-002  0.17878386587210363        2.3022091137227658E-004   1.5884129102882467E-006
 abs           4           7  0.18114004654217683        3.5893246767150790E-003   9.5532654802263882E-004   5.5000000000000000E-002  0.12598686091393937        1.5189198810764421E-004   1.2936401298212933E-006
 abs           4           8  0.17377515515641992        3.3022109143020693E-003   8.0532108581136551E-004   8.4900000000000003E-002   8.8781440347101198E-002   9.2657903805336850E-005   1.0569055133841027E-006
 abs           4           9  0.26214824743036502        3.0891844642222644E-003   7.0525693873125302E-004  0.19950000000000001        6.2563223600674650E-002   8.4173112391259502E-005   8.5071729906783975E-007
 abs           4          10  0.32917926530105784        2.8609902173846913E-003   6.0515274454486312E-004  0.28499999999999998        4.4087558525804142E-002   9.1021008526111452E-005   6.8576672761482963E-007
 abs           4          11  0.38236103334526944        2.5352359094698439E-003   4.5504652580715635E-004  0.35120000000000001        3.1067977397910899E-002   9.2500002839965864E-005   5.5594451860088630E-007
 abs           4          12  0.47806802875041460        2.3131921440557204E-003   3.5498392731899163E-004  0.45590000000000003        2.1893233643958003E-002   2.7433996506498703E-004   4.5514139160182448E-007
 abs           4          13  0.65876082370631106        2.2534103275927762E-003   3.5479661200567427E-004  0.64329999999999998        1.5427900994326230E-002   3.2554627839271444E-005   3.6808414555718023E-007
 CDOM           5           1   5.1063679855291476E-003   100.00000000000000        2.0137527074704766     
 CDOM           5           2   5.1063679855291476E-003   100.00000000000000        1.4190675485932573     
 CDOM           5           3   5.1063679855291476E-003   100.00000000000000        1.0000000000000000     
 CDOM           5           4   5.1063679855291476E-003   100.00000000000000       0.70468808971871344     
 CDOM           5           5   5.1063679855291476E-003   100.00000000000000       0.49658530379140947     
 CDOM           5           6   5.1063679855291476E-003   100.00000000000000       0.34993774911115533     
 CDOM           5           7   5.1063679855291476E-003   100.00000000000000       0.24659696394160643     
 CDOM           5           8   5.1063679855291476E-003   100.00000000000000       0.17377394345044514     
 CDOM           5           9   5.1063679855291476E-003   100.00000000000000       0.12245642825298191     
 CDOM           5          10   5.1063679855291476E-003   100.00000000000000        8.6293586499370495E-002
 CDOM           5          11   5.1063679855291476E-003   100.00000000000000        6.0810062625217952E-002
 CDOM           5          12   5.1063679855291476E-003   100.00000000000000        4.2852126867040187E-002
 CDOM           5          13   5.1063679855291476E-003   100.00000000000000        3.0197383422318501E-002
 abs           5           1   1.0350527893980703        9.3155168050019881E-003   3.8055852909122741E-003   6.3000000000000000E-003   1.0282962356199885        4.5149551583284866E-004   5.0582622490379091E-006
 abs           5           2  0.73029973416081073        7.4237104973106415E-003   2.9052656811735544E-003   5.1000000000000004E-003  0.72462810994399374        5.6754124042640791E-004   4.0829763905632793E-006
 abs           5           3  0.51953867523965025        6.0958292873795929E-003   2.2551623951044130E-003   8.3000000000000001E-003  0.51063679855291477        5.9863675405313671E-004   3.2399326823902949E-006
 abs           5           4  0.37225181664922657        5.2072109808207374E-003   1.8052088612186868E-003   1.1900000000000001E-002  0.35983967011233303        5.0950169388745063E-004   2.6448430060328937E-006
 abs           5           5  0.27544736661210817        4.5460522523474607E-003   1.4553156853192781E-003   2.1499999999999998E-002  0.25357472973647194        3.7050447096257440E-004   2.1324046736140206E-006
 abs           5           6  0.21963329305168475        3.9886414495131067E-003   1.1553858755289014E-003   4.0700000000000000E-002  0.17869109189893345        2.4048200479738420E-004   1.7191479539213808E-006
 abs           5           7  0.18108094734745314        3.6649220406578540E-003   9.5556176526636119E-004   5.5000000000000000E-002  0.12592148420001048        1.5806303367635330E-004   1.4001137663186632E-006
 abs           5           8  0.17373312248549933        3.3797466954038819E-003   8.0556098925154860E-004   8.4900000000000003E-002   8.8735370155450563E-002   9.6608435448665835E-005   1.1438946001092267E-006
 abs           5           9  0.26211965886633970        3.1670819676164375E-003   7.0549713804110255E-004  0.19950000000000001        6.2530758485327381E-002   8.7979645040819063E-005   9.2073597147520102E-007
 abs           5          10  0.32916047805264242        2.9379919912561198E-003   6.0538970452372789E-004  0.28499999999999998        4.4064680745687576E-002   9.5055097886264202E-005   7.4220906856798084E-007
 abs           5          11  0.38234891887618183        2.6115116737699105E-003   4.5528050450256458E-004  0.35120000000000001        3.1051855698743552E-002   9.6461475654420036E-005   6.0170178387248333E-007
 abs           5          12  0.47806898019460031        2.3889100067564875E-003   3.5521601794579529E-004  0.45590000000000003        2.1881872874568747E-002   2.8661471802173243E-004   4.9260200987362643E-007
 abs           5          13  0.65875412181022874        2.3267807602333533E-003   3.5502143006528489E-004  0.64329999999999998        1.5419895195447581E-002   3.3828235303453814E-005   3.9837947778370459E-007
 CDOM           6           1   5.0939151160835170E-003   100.00000000000000        2.0137527074704766     
 CDOM           6           2   5.0939151160835170E-003   100.00000000000000        1.4190675485932573     
 CDOM           6           3   5.0939151160835170E-003   100.00000000000000        1.0000000000000000     
 CDOM           6           4   5.0939151160835170E-003   100.00000000000000       0.70468808971871344     
 CDOM           6           5   5.0939151160835170E-003   100.00000000000000       0.49658530379140947     
 CDOM           6           6   5.0939151160835170E-003   100.00000000000000       0.34993774911115533     
 CDOM           6           7   5.0939151160835170E-003   100.00000000000000       0.24659696394160643     
 CDOM           6           8   5.0939151160835170E-003   100.00000000000000       0.17377394345044514     
 CDOM           6           9   5.0939151160835170E-003   100.00000000000000       0.12245642825298191     
 CDOM           6          10   5.0939151160835170E-003   100.00000000000000        8.6293586499370495E-002
 CDOM           6          11   5.0939151160835170E-003   100.00000000000000        6.0810062625217952E-002
 CDOM           6          12   5.0939151160835170E-003   100.00000000000000        4.2852126867040187E-002
 CDOM           6          13   5.0939151160835170E-003   100.00000000000000        3.0197383422318501E-002
 abs           6           1   1.0325424494863578        9.3130648035922164E-003   3.8055993891437457E-003   6.3000000000000000E-003   1.0257885356637970        4.4824774810641864E-004   5.6660744542626680E-006
 abs           6           2  0.72852888841372299        7.4214175393523601E-003   2.9052791794468161E-003   5.1000000000000004E-003  0.72286096365227748        5.6335116539903628E-004   4.5735960464146362E-006
 abs           6           3  0.51828933829107149        6.0926338249620892E-003   2.2551705259071021E-003   8.3000000000000001E-003  0.50939151160835172        5.9419743241575877E-004   3.6292503040375260E-006
 abs           6           4  0.37137091752031509        5.2041580336577220E-003   1.8052178022047144E-003   1.1900000000000001E-002  0.35896213123421722        5.0582363278843046E-004   2.9626533094183885E-006
 abs           6           5  0.27482651314953138        4.5423537347078890E-003   1.4553217290625478E-003   2.1499999999999998E-002  0.25295633854079863        3.6778596950200648E-004   2.3886392307185758E-006
 abs           6           6  0.21919600116421256        3.9843667418357287E-003   1.1553896245903672E-003   4.0700000000000000E-002  0.17825531898855554        2.3875645100589817E-004   1.9257246511219526E-006
 abs           6           7  0.18077282196075098        3.6599041963286884E-003   9.5556286800112711E-004   5.5000000000000000E-002  0.12561440022024511        1.5685338591019612E-004   1.5683545956733595E-006
 abs           6           8  0.17351614645587055        3.3745014746923777E-003   8.0556113948132763E-004   8.4900000000000003E-002   8.8518971732366475E-002   9.5893375947743339E-005   1.2813475563234529E-006
 abs           6           9  0.26196665289625987        3.1617581313027523E-003   7.0549658720787467E-004  0.19950000000000001        6.2378265093946124E-002   8.7356428630387553E-005   1.0313736833412765E-006
 abs           6          10  0.32905242408960228        2.9326556966696076E-003   6.0538865787205219E-004  0.28499999999999998        4.3957220469020390E-002   9.4372225996971893E-005   8.3139458495553526E-007
 abs           6          11  0.38227255682278055        2.6060485633778376E-003   4.5527845982829067E-004  0.35120000000000001        3.0976129721658304E-002   9.5753097494336934E-005   6.7400362789268331E-007
 abs           6          12  0.47801363324951451        2.3835021280213969E-003   3.5521368259823418E-004  0.45590000000000003        2.1828509680434462E-002   2.8457177490111665E-004   5.5179417887917479E-007
 abs           6          13  0.65871630294528827        2.3216762570360447E-003   3.5501963670355586E-004  0.64329999999999998        1.5382290788111803E-002   3.3565907521644511E-005   4.4624965473114474E-007
 CDOM           7           1   5.0812363441050355E-003   100.00000000000000        2.0137527074704766     
 CDOM           7           2   5.0812363441050355E-003   100.00000000000000        1.4190675485932573     
 CDOM           7           3   5.0812363441050355E-003   100.00000000000000        1.0000000000000000     
 CDOM           7           4   5.0812363441050355E-003   100.00000000000000       0.70468808971871344     
 CDOM           7           5   5.0812363441050355E-003   100.00000000000000       0.49658530379140947     
 CDOM           7           6   5.0812363441050355E-003   100.00000000000000       0.34993774911115533     
 CDOM           7           7   5.0812363441050355E-003   100.00000000000000       0.24659696394160643     
 CDOM           7           8   5.0812363441050355E-003   100.00000000000000       0.17377394345044514     
 CDOM           7           9   5.0812363441050355E-003   100.00000000000000       0.12245642825298191     
 CDOM           7          10   5.0812363441050355E-003   100.00000000000000        8.6293586499370495E-002
 CDOM           7          11   5.0812363441050355E-003   100.00000000000000        6.0810062625217952E-002
 CDOM           7          12   5.0812363441050355E-003   100.00000000000000        4.2852126867040187E-002
 CDOM           7          13   5.0812363441050355E-003   100.00000000000000        3.0197383422318501E-002
 abs           7           1   1.0299849292451946        9.3056267580334164E-003   3.8055996881499227E-003   6.3000000000000000E-003   1.0232353445238902        4.4329132111548865E-004   6.2934001889978285E-006
 abs           7           2  0.72672396118095717        7.4143165465411645E-003   2.9052793612703021E-003   5.1000000000000004E-003  0.72106176026520985        5.5712094892814161E-004   5.0799668192237366E-006
 abs           7           3  0.51701529093520904        6.0846107342366271E-003   2.2551651989248397E-003   8.3000000000000001E-003  0.50812363441050357        5.8762545791774814E-004   4.0310667877240998E-006
 abs           7           4  0.37047219419695498        5.1962328445713385E-003   1.8052131713260015E-003   1.1900000000000001E-002  0.35806867327366770        5.0023025652177165E-004   3.2906667654890609E-006
 abs           7           5  0.27419310156907295        4.5335554392778093E-003   1.4553135096667690E-003   2.1499999999999998E-002  0.25232672935733502        3.6371911165822350E-004   2.6531000796755554E-006
 abs           7           6  0.21874989701884190        3.9746089743236002E-003   1.1553779758926221E-003   4.0700000000000000E-002  0.17781164089579121        2.3611718965311181E-004   2.1389333975678893E-006
 abs           7           7  0.18045860710058928        3.6489065753416965E-003   9.5554711323479681E-004   5.5000000000000000E-002  0.12530174555260495        1.5511955126534644E-004   1.7419967189807716E-006
 abs           7           8  0.17329490421558302        3.3630275711570975E-003   8.0554369977668596E-004   8.4900000000000003E-002   8.8298647711885503E-002   9.4833290321445600E-005   1.4232133760740188E-006
 abs           7           9  0.26181054159203471        3.1501097259784743E-003   7.0547815483623069E-004  0.19950000000000001        6.2223005380834237E-002   8.6390647832742019E-005   1.1455633677358792E-006
 abs           7          10  0.32894206304102630        2.9210360990414991E-003   6.0536983415399026E-004  0.28499999999999998        4.3847810798377303E-002   9.3328799287967015E-005   9.2344336106536773E-007
 abs           7          11  0.38219447288086272        2.5943176215631409E-003   4.5525866083073724E-004  0.35120000000000001        3.0899030029856073E-002   9.4694224317511152E-005   7.4862668914876128E-007
 abs           7          12  0.47795621654581844        2.3718397728337620E-003   3.5519362238159235E-004  0.45590000000000003        2.1774178445900447E-002   2.8142521323288482E-004   6.1288668507233754E-007
 abs           7          13  0.65867769446045754        2.3104943274501522E-003   3.5500062359922121E-004  0.64329999999999998        1.5344004214235967E-002   3.3194589540013494E-005   4.9565668155178972E-007
 CDOM           8           1   4.8785409217826222E-003   100.00000000000000        2.0137527074704766     
 CDOM           8           2   4.8785409217826222E-003   100.00000000000000        1.4190675485932573     
 CDOM           8           3   4.8785409217826222E-003   100.00000000000000        1.0000000000000000     
 CDOM           8           4   4.8785409217826222E-003   100.00000000000000       0.70468808971871344     
 CDOM           8           5   4.8785409217826222E-003   100.00000000000000       0.49658530379140947     
 CDOM           8           6   4.8785409217826222E-003   100.00000000000000       0.34993774911115533     
 CDOM           8           7   4.8785409217826222E-003   100.00000000000000       0.24659696394160643     
 CDOM           8           8   4.8785409217826222E-003   100.00000000000000       0.17377394345044514     
 CDOM           8           9   4.8785409217826222E-003   100.00000000000000       0.12245642825298191     
 CDOM           8          10   4.8785409217826222E-003   100.00000000000000        8.6293586499370495E-002
 CDOM           8          11   4.8785409217826222E-003   100.00000000000000        6.0810062625217952E-002
 CDOM           8          12   4.8785409217826222E-003   100.00000000000000        4.2852126867040187E-002
 CDOM           8          13   4.8785409217826222E-003   100.00000000000000        3.0197383422318501E-002
 abs           8           1  0.98913092814376535        9.1704881393515261E-003   3.8052419618584826E-003   6.3000000000000000E-003  0.98241749897452701        4.0652723379472827E-004   6.9019354436401442E-006
 abs           8           2  0.69791760763487243        7.2852355992129806E-003   2.9049363160256040E-003   5.1000000000000004E-003  0.69229791065859558        5.1412580616388515E-004   5.5711701130036452E-006
 abs           8           3  0.49670251618031108        5.9567982212898425E-003   2.2548243483301710E-003   8.3000000000000001E-003  0.48785409217826220        5.4400315450987250E-004   4.4208475390636222E-006
 abs           8           4  0.35614692474315590        5.0684380455623219E-003   1.8048740768920035E-003   1.1900000000000001E-002  0.34378496827855670        4.5834760946521512E-004   3.6088551339294874E-006
 abs           8           5  0.26409752994418423        4.4014488428545757E-003   1.4549615005082668E-003   2.1499999999999998E-002  0.24226117257022461        3.3344773450790091E-004   2.9096394517306495E-006
 abs           8           6  0.21163483720009160        3.8347649772390848E-003   1.1549996959169322E-003   4.0700000000000000E-002  0.17071856291152715        2.1392853272739993E-004   2.3457558370541667E-006
 abs           8           7  0.17544547235336225        3.4983730382673753E-003   9.5513431063075360E-004   5.5000000000000000E-002  0.12030333797764807        1.4022393802765176E-004   1.9104376865239226E-006
 abs           8           8  0.16976398035401105        3.2083827153807473E-003   8.0511640451000420E-004   8.4900000000000003E-002   8.4776329426253585E-002   8.6090097912013713E-005   1.5608298454245034E-006
 abs           8           9  0.25932084314024523        2.9953182443394309E-003   7.0504945155513011E-004  0.19950000000000001        5.9740869636750987E-002   7.8717170800786531E-005   1.2563326934992027E-006
 abs           8          10  0.32718508800187701        2.7677148326570697E-003   6.0494391226716539E-004  0.28499999999999998        4.2098679302456733E-002   8.5395964448325867E-005   1.0127349719589624E-006
 abs           8          11  0.38095412206937601        2.4414699746591381E-003   4.5483162025913767E-004  0.35120000000000001        2.9666437897328975E-002   8.6863157504078097E-005   8.2101454296895834E-007
 abs           8          12  0.47706501559392239        2.2218240395154463E-003   3.5477627965187317E-004  0.45590000000000003        2.0905585450627609E-002   2.5875799402610549E-004   6.7214926869436700E-007
 abs           8          13  0.65806347644284913        2.1661293086460880E-003   3.5459963621792495E-004  0.64329999999999998        1.4731917075654096E-002   3.1015783390532755E-005   5.4358380454812898E-007
 CDOM           9           1   4.6755522146044040E-003   100.00000000000000        2.0137527074704766     
 CDOM           9           2   4.6755522146044040E-003   100.00000000000000        1.4190675485932573     
 CDOM           9           3   4.6755522146044040E-003   100.00000000000000        1.0000000000000000     
 CDOM           9           4   4.6755522146044040E-003   100.00000000000000       0.70468808971871344     
 CDOM           9           5   4.6755522146044040E-003   100.00000000000000       0.49658530379140947     
 CDOM           9           6   4.6755522146044040E-003   100.00000000000000       0.34993774911115533     
 CDOM           9           7   4.6755522146044040E-003   100.00000000000000       0.24659696394160643     
 CDOM           9           8   4.6755522146044040E-003   100.00000000000000       0.17377394345044514     
 CDOM           9           9   4.6755522146044040E-003   100.00000000000000       0.12245642825298191     
 CDOM           9          10   4.6755522146044040E-003   100.00000000000000        8.6293586499370495E-002
 CDOM           9          11   4.6755522146044040E-003   100.00000000000000        6.0810062625217952E-002
 CDOM           9          12   4.6755522146044040E-003   100.00000000000000        4.2852126867040187E-002
 CDOM           9          13   4.6755522146044040E-003   100.00000000000000        3.0197383422318501E-002
 abs           9           1  0.94822019116374001        9.0499544036339412E-003   3.8048723753792780E-003   6.3000000000000000E-003  0.94154059310792027        3.7208932218818350E-004   7.5087336315976609E-006
 abs           9           2  0.66906816028521143        7.1718753884845079E-003   2.9045907581537215E-003   5.1000000000000004E-003  0.66349244194984480        4.6965736410185783E-004   6.0609712647209868E-006
 abs           9           3  0.47635682623150638        5.8441733261551136E-003   2.2544779987453008E-003   8.3000000000000001E-003  0.46755522146044043        4.9679525540650450E-004   4.8095156594547106E-006
 abs           9           4  0.34180397350788122        4.9553328774949047E-003   1.8045256578042399E-003   1.1900000000000001E-002  0.32948059584896777        4.1945152368121416E-004   3.9261352322079274E-006
 abs           9           5  0.25398897471072879        4.2852345132672123E-003   1.4546027259845105E-003   2.1499999999999998E-002  0.23218105168819253        3.0475757600527886E-004   3.1654465309676414E-006
 abs           9           6  0.20451361988015071        3.7165254381399519E-003   1.1546391885970113E-003   4.0700000000000000E-002  0.16361522178303428        1.9584610921546852E-004   2.5519879009351528E-006
 abs           9           7  0.17042750280112307        3.3756207603336860E-003   9.5476433730525055E-004   5.5000000000000000E-002  0.11529769808719004        1.2772631609447152E-004   2.0783978385500715E-006
 abs           9           8  0.16622923901029008        3.0857263063480632E-003   8.0475045521437771E-004   8.4900000000000003E-002   8.1248914614026932E-002   7.8626342775213110E-005   1.6980534879299285E-006
 abs           9           9  0.25682864140099748        2.8742930445338484E-003   7.0468994368378518E-004  0.19950000000000001        5.7255142431077488E-002   7.2132184092229233E-005   1.3667858277123845E-006
 abs           9          10  0.32542628608922708        2.6489686011648694E-003   6.0459243121699260E-004  0.28499999999999998        4.0347016946328841E-002   7.8167371198673157E-005   1.1017716995383495E-006
 abs           9          11  0.37971234490087524        2.3247764793048078E-003   4.5448815651070182E-004  0.35120000000000001        2.8432062297757032E-002   7.9389407352871983E-005   8.9319576532730335E-007
 abs           9          12  0.47617344153375074        2.1070039731368962E-003   3.5443714887872232E-004  0.45590000000000003        2.0035735667369863E-002   2.3697462369383129E-004   7.3124268699872631E-007
 abs           9          13  0.65744776037805264        2.0560721854078101E-003   3.5427501278267285E-004  0.64329999999999998        1.4118944293547960E-002   2.8224710385378681E-005   5.9137411935131898E-007
 CDOM          10           1   4.3913810656225705E-003   100.00000000000000        2.0137527074704766     
 CDOM          10           2   4.3913810656225705E-003   100.00000000000000        1.4190675485932573     
 CDOM          10           3   4.3913810656225705E-003   100.00000000000000        1.0000000000000000     
 CDOM          10           4   4.3913810656225705E-003   100.00000000000000       0.70468808971871344     
 CDOM          10           5   4.3913810656225705E-003   100.00000000000000       0.49658530379140947     
 CDOM          10           6   4.3913810656225705E-003   100.00000000000000       0.34993774911115533     
 CDOM          10           7   4.3913810656225705E-003   100.00000000000000       0.24659696394160643     
 CDOM          10           8   4.3913810656225705E-003   100.00000000000000       0.17377394345044514     
 CDOM          10           9   4.3913810656225705E-003   100.00000000000000       0.12245642825298191     
 CDOM          10          10   4.3913810656225705E-003   100.00000000000000        8.6293586499370495E-002
 CDOM          10          11   4.3913810656225705E-003   100.00000000000000        6.0810062625217952E-002
 CDOM          10          12   4.3913810656225705E-003   100.00000000000000        4.2852126867040187E-002
 CDOM          10          13   4.3913810656225705E-003   100.00000000000000        3.0197383422318501E-002
 abs          10           1  0.89093360424676682        8.8269024137202588E-003   3.8041667247556625E-003   6.3000000000000000E-003  0.88431555104320381        3.1025320866842100E-004   7.7999948945990803E-006
 abs          10           2  0.62866357510814519        6.9614691526403948E-003   2.9039284373974573E-003   5.1000000000000004E-003  0.62316663637318670        3.9064266064810308E-004   6.2960743103463153E-006
 abs          10           3  0.44785615371726445        5.6360970698031950E-003   2.2538208293143712E-003   8.3000000000000001E-003  0.43913810656225705        4.1305107984618674E-004   4.9960751612464700E-006
 abs          10           4  0.32170914437005321        4.7460275929145377E-003   1.8038633277471126E-003   1.1900000000000001E-002  0.30945539343604972        3.4967250530045467E-004   4.0784287030583430E-006
 abs          10           5  0.23982646289362497        4.0704447398396560E-003   1.4539234764396150E-003   2.1499999999999998E-002  0.21806953005360277        2.5364460688038077E-004   3.2882331418407890E-006
 abs          10           6  0.19453699283810486        3.4971703451693557E-003   1.1539543554712076E-003   4.0700000000000000E-002  0.15367100055933089        1.6334130011699431E-004   2.6509786569879227E-006
 abs          10           7  0.16339813111086215        3.1471995674172189E-003   9.5405984112337553E-004   5.5000000000000000E-002  0.10829012382931823        1.0584826334926111E-004   2.1590181946815101E-006
 abs          10           8  0.16127790424231717        2.8564893913153957E-003   8.0405020195742295E-004   8.4900000000000003E-002   7.6310760496685212E-002   6.5379825217893827E-005   1.7639204140727331E-006
 abs          10           9  0.25333693640725663        2.6473783044083455E-003   7.0399985293013794E-004  0.19950000000000001        5.3775284039391351E-002   6.0232564873032845E-005   1.4198029922521854E-006
 abs          10          10  0.32296112952424333        2.4260790435705537E-003   6.0391692975573011E-004  0.28499999999999998        3.7894802183799904E-002   6.5182831388615410E-005   1.1445090547957475E-006
 abs          10          11  0.37797101811317402        2.1055604094585424E-003   4.5382750428259281E-004  0.35120000000000001        2.6704015761170485E-002   6.6074509473616592E-005   9.2784252994577289E-007
 abs          10          12  0.47491649805729602        1.8908873256646877E-003   3.5378419713474787E-004  0.45590000000000003        1.8818001854557651E-002   1.9773659539234931E-004   7.5960734594461619E-007
 abs          10          13  0.65658479791990276        1.8483833081967408E-003   3.5364807238710317E-004  0.64329999999999998        1.3260821779211436E-002   2.3361827367998025E-005   6.1431332339816280E-007
 CDOM          11           1   4.0800710444381678E-003   100.00000000000000        2.0137527074704766     
 CDOM          11           2   4.0800710444381678E-003   100.00000000000000        1.4190675485932573     
 CDOM          11           3   4.0800710444381678E-003   100.00000000000000        1.0000000000000000     
 CDOM          11           4   4.0800710444381678E-003   100.00000000000000       0.70468808971871344     
 CDOM          11           5   4.0800710444381678E-003   100.00000000000000       0.49658530379140947     
 CDOM          11           6   4.0800710444381678E-003   100.00000000000000       0.34993774911115533     
 CDOM          11           7   4.0800710444381678E-003   100.00000000000000       0.24659696394160643     
 CDOM          11           8   4.0800710444381678E-003   100.00000000000000       0.17377394345044514     
 CDOM          11           9   4.0800710444381678E-003   100.00000000000000       0.12245642825298191     
 CDOM          11          10   4.0800710444381678E-003   100.00000000000000        8.6293586499370495E-002
 CDOM          11          11   4.0800710444381678E-003   100.00000000000000        6.0810062625217952E-002
 CDOM          11          12   4.0800710444381678E-003   100.00000000000000        4.2852126867040187E-002
 CDOM          11          13   4.0800710444381678E-003   100.00000000000000        3.0197383422318501E-002
 abs          11           1  0.82816184668758042        8.5398315937304983E-003   3.8032431187225561E-003   6.3000000000000000E-003  0.82162541124092558        2.2847692275059211E-004   7.9585239042491908E-006
 abs          11           2  0.58438191824838093        6.6904140256252263E-003   2.9030612019301364E-003   5.1000000000000004E-003  0.57898964151172017        2.8585269939158963E-004   6.4240372691161759E-006
 abs          11           3  0.41661371104586326        5.3677724267013850E-003   2.2529599828797369E-003   8.3000000000000001E-003  0.40800710444381677        3.0150898542805613E-004   5.0976166184079777E-006
 abs          11           4  0.29967951170957036        4.4756665822140440E-003   1.8029938489145063E-003   1.1900000000000001E-002  0.28751774702217686        2.5760336770497131E-004   4.1613196884963085E-006
 abs          11           5  0.22430020249854574        3.7927048856941448E-003   1.4530314243109386E-003   2.1499999999999998E-002  0.20261033190928610        1.8651552526080875E-004   3.3550639988501491E-006
 abs          11           6  0.18360106567714490        3.2132539218607437E-003   1.1530559518132676E-003   4.0700000000000000E-002  0.14277708775042930        1.2127306891808432E-004   2.7048577975226005E-006
 abs          11           7  0.15569377361720876        2.8513250766055960E-003   9.5313683523255894E-004   5.5000000000000000E-002  0.10061331322245114        7.8257496147504760E-005   2.2028986100977336E-006
 abs          11           8  0.15585115213867493        2.5590939421654977E-003   8.0313250530255763E-004   8.4900000000000003E-002   7.0901003494999684E-002   4.8348872909950979E-005   1.7997707652746534E-006
 abs          11           9  0.24950914349320449        2.3523836441242878E-003   7.0309405703978991E-004  0.19950000000000001        4.9963092712031143E-002   4.4602121756772359E-005   1.4486594165577773E-006
 abs          11          10  0.32025764074817537        2.1362422461320757E-003   6.0303051252861759E-004  0.28499999999999998        3.5208396359680191E-002   4.8076618157615500E-005   1.1677703375842767E-006
 abs          11          11  0.37606045326580823        1.8205992198490303E-003   4.5296170689623121E-004  0.35120000000000001        2.4810937572762339E-002   4.8568992816718499E-005   9.4670022913291012E-007
 abs          11          12  0.47353021414346275        1.6091185339794751E-003   3.5292545453545189E-004  0.45590000000000003        1.7483972202280151E-002   1.4546689539058936E-004   7.7504579198243738E-007
 abs          11          13  0.65563825156961397        1.5771167144899572E-003   3.5282191347842340E-004  0.64329999999999998        1.2320746971919885E-002   1.6877798916025598E-005   6.2679877807975640E-007
 CDOM          12           1   3.7685980463637216E-003   100.00000000000000        2.0137527074704766     
 CDOM          12           2   3.7685980463637216E-003   100.00000000000000        1.4190675485932573     
 CDOM          12           3   3.7685980463637216E-003   100.00000000000000        1.0000000000000000     
 CDOM          12           4   3.7685980463637216E-003   100.00000000000000       0.70468808971871344     
 CDOM          12           5   3.7685980463637216E-003   100.00000000000000       0.49658530379140947     
 CDOM          12           6   3.7685980463637216E-003   100.00000000000000       0.34993774911115533     
 CDOM          12           7   3.7685980463637216E-003   100.00000000000000       0.24659696394160643     
 CDOM          12           8   3.7685980463637216E-003   100.00000000000000       0.17377394345044514     
 CDOM          12           9   3.7685980463637216E-003   100.00000000000000       0.12245642825298191     
 CDOM          12          10   3.7685980463637216E-003   100.00000000000000        8.6293586499370495E-002
 CDOM          12          11   3.7685980463637216E-003   100.00000000000000        6.0810062625217952E-002
 CDOM          12          12   3.7685980463637216E-003   100.00000000000000        4.2852126867040187E-002
 CDOM          12          13   3.7685980463637216E-003   100.00000000000000        3.0197383422318501E-002
 abs          12           1  0.76536268449151512        8.2652301667502839E-003   3.8023903509707691E-003   6.3000000000000000E-003  0.75890245192328931        1.5212544663319906E-004   8.1071215925941820E-006
 abs          12           2  0.54008642273475593        6.4302244812104829E-003   2.9022562497829601E-003   5.1000000000000004E-003  0.53478951912867045        1.9035962231626135E-004   6.5439837691854988E-006
 abs          12           3  0.38536606985775984        5.1105093629109392E-003   2.2521628950421665E-003   8.3000000000000001E-003  0.37685980463637214        2.0107242455065624E-004   5.1927968370864693E-006
 abs          12           4  0.27764467063647214        4.2168333185190364E-003   1.8021909538710715E-003   1.1900000000000001E-002  0.26556861582097263        1.7181579767325459E-004   4.2390178261930359E-006
 abs          12           5  0.20877048797211348        3.5265077068751256E-003   1.4522065865314121E-003   2.1499999999999998E-002  0.18714304057212408        1.2402969186702903E-004   3.4177081223681353E-006
 abs          12           6  0.17266059222615082        2.9385663310002065E-003   1.1522130127524094E-003   4.0700000000000000E-002  0.13187747176492182        8.0365099641969691E-005   2.7553615870254733E-006
 abs          12           7  0.14798615186938338        2.5625382204699969E-003   9.5225858016361039E-004   5.5000000000000000E-002   9.2932483654956308E-002   5.1424184365324711E-005   2.2440300617409384E-006
 abs          12           8  0.15042220397347184        2.2669114370213557E-003   8.0225010547611950E-004   8.4900000000000003E-002   6.5488414379626742E-002   3.1956218635245207E-005   1.8333752098284881E-006
 abs          12           9  0.24568005048765912        2.0616786636377419E-003   7.0221913612041834E-004  0.19950000000000001        4.6148905627886684E-002   2.9669151691691844E-005   1.4757080807434506E-006
 abs          12          10  0.31755373554613192        1.8499479531269496E-003   6.0217096285372282E-004  0.28499999999999998        3.2520584149524648E-002   3.1961822229790900E-005   1.1895743774754209E-006
 abs          12          11  0.37415018727574489        1.5380444261668342E-003   4.5211660934637411E-004  0.35120000000000001        2.2916868320865192E-002   3.2354578324259665E-005   9.6437655545891568E-007
 abs          12          12  0.47214685759159697        1.3301691137515832E-003   3.5209018302893532E-004  0.45590000000000003        1.6149244159365798E-002   9.6823915161004545E-005   7.8951707012845287E-007
 abs          12          13  0.65469204326612807        1.3084421545138652E-003   3.5201806386410986E-004  0.64329999999999998        1.1380180017064574E-002   1.1224747003454002E-005   6.3850206007032604E-007
 CDOM          13           1   3.3332096580152822E-003   100.00000000000000        2.0137527074704766     
 CDOM          13           2   3.3332096580152822E-003   100.00000000000000        1.4190675485932573     
 CDOM          13           3   3.3332096580152822E-003   100.00000000000000        1.0000000000000000     
 CDOM          13           4   3.3332096580152822E-003   100.00000000000000       0.70468808971871344     
 CDOM          13           5   3.3332096580152822E-003   100.00000000000000       0.49658530379140947     
 CDOM          13           6   3.3332096580152822E-003   100.00000000000000       0.34993774911115533     
 CDOM          13           7   3.3332096580152822E-003   100.00000000000000       0.24659696394160643     
 CDOM          13           8   3.3332096580152822E-003   100.00000000000000       0.17377394345044514     
 CDOM          13           9   3.3332096580152822E-003   100.00000000000000       0.12245642825298191     
 CDOM          13          10   3.3332096580152822E-003   100.00000000000000        8.6293586499370495E-002
 CDOM          13          11   3.3332096580152822E-003   100.00000000000000        6.0810062625217952E-002
 CDOM          13          12   3.3332096580152822E-003   100.00000000000000        4.2852126867040187E-002
 CDOM          13          13   3.3332096580152822E-003   100.00000000000000        3.0197383422318501E-002
 abs          13           1  0.67767439605609903        8.2260882991939208E-003   3.8022684576355052E-003   6.3000000000000000E-003  0.67122599733950161        1.4024509219065878E-004   8.1536244067124021E-006
 abs          13           2  0.47828704707297637        6.3930061296356066E-003   2.9021409199518344E-003   5.1000000000000004E-003  0.47300496583471158        1.7549971791034849E-004   6.5815203544377876E-006
 abs          13           3  0.34181155247165207        5.0734713152765180E-003   2.2520477675260137E-003   8.3000000000000001E-003  0.33332096580152820        1.8536408717055361E-004   5.2225829533190545E-006
 abs          13           4  0.24695026317699315        4.1794545252799064E-003   1.8020745546612881E-003   1.1900000000000001E-002  0.23488731465387552        1.5868519009451052E-004   4.2633330231175957E-006
 abs          13           5  0.18714023692620824        3.4878529687350757E-003   1.4520863036167086E-003   2.1499999999999998E-002  0.16552229306259789        1.1450655136046055E-004   3.4373122498885617E-006
 abs          13           6  0.15741860859613438        2.8983858545499385E-003   1.1520895079988138E-003   4.0700000000000000E-002  0.11664158850414316        7.4248925526218271E-005   2.7711664650264372E-006
 abs          13           7  0.13724584555749877        2.5200129563097786E-003   9.5212933180740557E-004   5.5000000000000000E-002   8.2195938184740885E-002   4.7650470838799277E-005   2.2569019191128771E-006
 abs          13           8  0.14285389156867909        2.2236082073300422E-003   8.0211961450933568E-004   8.4900000000000003E-002   5.7922498662042521E-002   2.9549015104082604E-005   1.8438915324983601E-006
 abs          13           9  0.24034614989410441        2.0183223121804134E-003   7.0208897518298993E-004  0.19950000000000001        4.0817294933889477E-002   2.7370787406249649E-005   1.4841728086728128E-006
 abs          13          10  0.31379412130053269        1.8071783711934924E-003   6.0204294779034426E-004  0.28499999999999998        2.8763461594447887E-002   2.9463308255207139E-005   1.1963978296123753E-006
 abs          13          11  0.37150013656972736        1.4957888972990695E-003   4.5199074660309617E-004  0.35120000000000001        2.0269268804689062E-002   2.9897856775524715E-005   9.6990826275925294E-007
 abs          13          12  0.47027336529352587        1.2881749058655837E-003   3.5196479046928369E-004  0.45590000000000003        1.4283512313971449E-002   8.9058933778788071E-005   7.9404577555565210E-007
 abs          13          13  0.65337640072331560        1.2678368685237352E-003   3.5189688915232759E-004  0.64329999999999998        1.0065421007006260E-002   1.0337551772700607E-005   6.4216453660708785E-007
 CDOM          14           1   2.8564998947248951E-003   100.00000000000000        2.0137527074704766     
 CDOM          14           2   2.8564998947248951E-003   100.00000000000000        1.4190675485932573     
 CDOM          14           3   2.8564998947248951E-003   100.00000000000000        1.0000000000000000     
 CDOM          14           4   2.8564998947248951E-003   100.00000000000000       0.70468808971871344     
 CDOM          14           5   2.8564998947248951E-003   100.00000000000000       0.49658530379140947     
 CDOM          14           6   2.8564998947248951E-003   100.00000000000000       0.34993774911115533     
 CDOM          14           7   2.8564998947248951E-003   100.00000000000000       0.24659696394160643     
 CDOM          14           8   2.8564998947248951E-003   100.00000000000000       0.17377394345044514     
 CDOM          14           9   2.8564998947248951E-003   100.00000000000000       0.12245642825298191     
 CDOM          14          10   2.8564998947248951E-003   100.00000000000000        8.6293586499370495E-002
 CDOM          14          11   2.8564998947248951E-003   100.00000000000000        6.0810062625217952E-002
 CDOM          14          12   2.8564998947248951E-003   100.00000000000000        4.2852126867040187E-002
 CDOM          14          13   2.8564998947248951E-003   100.00000000000000        3.0197383422318501E-002
 abs          14           1  0.58167825781537252        8.2495869111531579E-003   3.8023472167535216E-003   6.3000000000000000E-003  0.57522843968913884        1.4166123962307546E-004   8.1568866105920126E-006
 abs          14           2  0.41064115972782644        6.4142271819981689E-003   2.9022121159523340E-003   5.1000000000000004E-003  0.40535663031641544        1.7794525783969124E-004   6.5841535712948596E-006
 abs          14           3  0.29414284508770011        5.0934894462981778E-003   2.2521151527781849E-003   8.3000000000000001E-003  0.28564998947248949        1.8763094274107855E-004   5.2246724695295253E-006
 abs          14           4  0.21335869760950349        4.1991035676830135E-003   1.8021408627479018E-003   1.1900000000000001E-002  0.20129414540953922        1.6028716121362983E-004   4.2650387506363470E-006
 abs          14           5  0.16346948146947063        3.5069310370136704E-003   1.4521508804557532E-003   2.1499999999999998E-002  0.14184958680020912        1.1645598176882618E-004   3.4386874927005548E-006
 abs          14           6  0.14073822942359010        2.9156315545606389E-003   1.1521480522072118E-003   4.0700000000000000E-002   9.9959714349628193E-002   7.5742798773989763E-005   2.7722751879136254E-006
 abs          14           7  0.12549261779956772        2.5357953503001057E-003   9.5218308850715462E-004   5.5000000000000000E-002   7.0440420153867742E-002   4.9939840811356850E-005   2.2578048886181161E-006
 abs          14           8  0.13457081499476539        2.2374232504423072E-003   8.0216692866615449E-004   8.4900000000000003E-002   4.9638525117212638E-002   3.0445248293092328E-005   1.8446292596502200E-006
 abs          14           9  0.23450881075607255        2.0303216357069609E-003   7.0213041370639805E-004  0.19950000000000001        3.4979677441302946E-002   2.7648548154506896E-005   1.4847666150652782E-006
 abs          14          10  0.30968078400137045        1.8183884883260766E-003   6.0208174287261788E-004  0.28499999999999998        2.4649762075088542E-002   2.9825049782517708E-005   1.1968764993973249E-006
 abs          14          11  0.36860172326281576        1.5062558825066109E-003   4.5202699232462217E-004  0.35120000000000001        1.7370393748714935E-002   3.0359217785027071E-005   9.7029631576976885E-007
 abs          14          12  0.46823113042774633        1.2972052733729743E-003   3.5199652919748508E-004  0.45590000000000003        1.2240709588443813E-002   8.9626475835239685E-005   7.9436346730601956E-007
 abs          14          13  0.65193709871325523        1.2756350150904103E-003   3.5192460629612842E-004  0.64329999999999998        8.6258822566820086E-003   1.0574035111405466E-005   6.4242146181459975E-007
 CDOM          15           1   2.3794715970472569E-003   100.00000000000000        2.0137527074704766     
 CDOM          15           2   2.3794715970472569E-003   100.00000000000000        1.4190675485932573     
 CDOM          15           3   2.3794715970472569E-003   100.00000000000000        1.0000000000000000     
 CDOM          15           4   2.3794715970472569E-003   100.00000000000000       0.70468808971871344     
 CDOM          15           5   2.3794715970472569E-003   100.00000000000000       0.49658530379140947     
 CDOM          15           6   2.3794715970472569E-003   100.00000000000000       0.34993774911115533     
 CDOM          15           7   2.3794715970472569E-003   100.00000000000000       0.24659696394160643     
 CDOM          15           8   2.3794715970472569E-003   100.00000000000000       0.17377394345044514     
 CDOM          15           9   2.3794715970472569E-003   100.00000000000000       0.12245642825298191     
 CDOM          15          10   2.3794715970472569E-003   100.00000000000000        8.6293586499370495E-002
 CDOM          15          11   2.3794715970472569E-003   100.00000000000000        6.0810062625217952E-002
 CDOM          15          12   2.3794715970472569E-003   100.00000000000000        4.2852126867040187E-002
 CDOM          15          13   2.3794715970472569E-003   100.00000000000000        3.0197383422318501E-002
 abs          15           1  0.48557501096676337        8.0986664696433616E-003   3.8018851287864269E-003   6.3000000000000000E-003  0.47916673709030128        1.0011698862429984E-004   8.1568878378016951E-006
 abs          15           2  0.34289646923780742        6.2708472845830468E-003   2.9017743000648200E-003   5.1000000000000004E-003  0.33766309261691341        1.2679246633210382E-004   6.5841545618856816E-006
 abs          15           3  0.24638658190595844        4.9518332322575761E-003   2.2516825705660307E-003   8.3000000000000001E-003  0.23794715970472569        1.3419752797716740E-004   5.2246732555853999E-006
 abs          15           4  0.17969654664223100        4.0566186651476571E-003   1.8017055141181758E-003   1.1900000000000001E-002  0.16767852942631678        1.1375217652190459E-004   4.2650393923146122E-006
 abs          15           5  0.13974713241863945        3.3602599050915178E-003   1.4517033499180300E-003   2.1499999999999998E-002  0.11816106258827423        8.2631142355157747E-005   3.4386880100536563E-006
 abs          15           6  0.12402253729220525        2.7633370033088704E-003   1.1516865551148916E-003   4.0700000000000000E-002   8.3266693474464304E-002   5.3071542135934155E-005   2.7722756050044978E-006
 abs          15           7  0.11371452144693743        2.3747759393519296E-003   9.5169823673868395E-004   5.5000000000000000E-002   5.8677047161713909E-002   3.5216479995220379E-005   2.2578052283065477E-006
 abs          15           8  0.12627230477794429        2.0737578960746852E-003   8.0167651351453848E-004   8.4900000000000003E-002   4.1349016274723038E-002   2.1443873684074470E-005   1.8446295371760698E-006
 abs          15           9  0.22865906454163926        1.8670612929954360E-003   7.0164251619404664E-004  0.19950000000000001        2.9138159290382569E-002   1.9420484418226974E-005   1.4847668384495241E-006
 abs          15          10  0.30555552596052699        1.6573630743385419E-003   6.0160131715230247E-004  0.28499999999999998        2.0533313808259273E-002   2.1015275588227661E-005   1.1968766794682880E-006
 abs          15          11  0.36569216450264197        1.3469934973268116E-003   4.5155299026187226E-004  0.35120000000000001        1.4469581683137106E-002   2.1612523043135485E-005   9.7029646175157427E-007
 abs          15          12  0.46616045703527781        1.1399602059117223E-003   3.5152847878900474E-004  0.45590000000000003        1.0196541875318777E-002   6.3120796372221469E-005   7.9436358681859637E-007
 abs          15          13  0.65049365782223367        1.1240367257269895E-003   3.5147372009352077E-004  0.64329999999999998        7.1853816158552559E-003   7.6337848199613262E-006   6.4242155846738838E-007
 CDOM          16           1   1.6644232405617642E-003   100.00000000000000        2.0137527074704766     
 CDOM          16           2   1.6644232405617642E-003   100.00000000000000        1.4190675485932573     
 CDOM          16           3   1.6644232405617642E-003   100.00000000000000        1.0000000000000000     
 CDOM          16           4   1.6644232405617642E-003   100.00000000000000       0.70468808971871344     
 CDOM          16           5   1.6644232405617642E-003   100.00000000000000       0.49658530379140947     
 CDOM          16           6   1.6644232405617642E-003   100.00000000000000       0.34993774911115533     
 CDOM          16           7   1.6644232405617642E-003   100.00000000000000       0.24659696394160643     
 CDOM          16           8   1.6644232405617642E-003   100.00000000000000       0.17377394345044514     
 CDOM          16           9   1.6644232405617642E-003   100.00000000000000       0.12245642825298191     
 CDOM          16          10   1.6644232405617642E-003   100.00000000000000        8.6293586499370495E-002
 CDOM          16          11   1.6644232405617642E-003   100.00000000000000        6.0810062625217952E-002
 CDOM          16          12   1.6644232405617642E-003   100.00000000000000        4.2852126867040187E-002
 CDOM          16          13   1.6644232405617642E-003   100.00000000000000        3.0197383422318501E-002
 abs          16           1  0.34150418089089957        7.8164709593903630E-003   3.8009917376487143E-003   6.3000000000000000E-003  0.33517368070580372        2.2343516972775504E-005   8.1566681230296401E-006
 abs          16           2  0.24132787176668991        6.0040442810172312E-003   2.9009332721064130E-003   5.1000000000000004E-003  0.23619290078056282        2.8387008916656656E-005   6.5839772104193492E-006
 abs          16           3  0.17477765170766546        4.6884294552401295E-003   2.2508512663921743E-003   8.3000000000000001E-003  0.16644232405617643        3.0103118965782449E-005   5.2245325232477428E-006
 abs          16           4  0.12921963009802234        3.7915794978483036E-003   1.8008676660682195E-003   1.1900000000000001E-002  0.11728992338749003        2.5441786023530303E-005   4.2649245087736680E-006
 abs          16           5  0.10417471085884779        3.0882318514107742E-003   1.4508447410815550E-003   2.1499999999999998E-002   8.2652812055184585E-002   1.8460208278000386E-005   3.4385953851987699E-006
 abs          16           6   9.8959008283417096E-002   2.4842686730033323E-003   1.1508159315260431E-003   4.0700000000000000E-002   5.8244452237047876E-002   1.1783845438525501E-005   2.7722009307028841E-006
 abs          16           7   9.6054244871574740E-002   2.0829888878414627E-003   9.5079794032430982E-004   5.5000000000000000E-002   4.1044171783638110E-002   7.8153435248017856E-006   2.2577444118320606E-006
 abs          16           8  0.11382995011125074        1.7797970737752110E-003   8.0077710677090518E-004   8.4900000000000003E-002   2.8923339008298667E-002   4.7665231020308212E-006   1.8445798500446114E-006
 abs          16           9  0.21988773955207058        1.5753819992575958E-003   7.0075372763747743E-004  0.19950000000000001        2.0381932514044732E-002   4.3223111812206765E-006   1.4847268446168330E-006
 abs          16          10  0.29936878398361672        1.3705158023003482E-003   6.0072989002060652E-004  0.28499999999999998        1.4362905088097915E-002   4.6820510785870339E-006   1.1968444402746106E-006
 abs          16          11  0.36132717580142903        1.0644499276202576E-003   4.5069878812869661E-004  0.35120000000000001        1.0121368149342908E-002   4.8373817603696473E-006   9.7027032574600932E-007
 abs          16          12  0.46304726896357168        8.6125033696147991E-004   3.5068448281598032E-004  0.45590000000000003        7.1324075865002870E-003   1.4067034881592815E-005   7.9434218975909558E-007
 abs          16          13  0.64832848188005199        8.5585729302537937E-004   3.5066223977799662E-004  0.64329999999999998        5.0261226772261459E-003   1.7167985717189800E-006   6.4240425413403371E-007
 CDOM          17           1   1.3009326578253895E-003   100.00000000000000        2.0137527074704766     
 CDOM          17           2   1.3009326578253895E-003   100.00000000000000        1.4190675485932573     
 CDOM          17           3   1.3009326578253895E-003   100.00000000000000        1.0000000000000000     
 CDOM          17           4   1.3009326578253895E-003   100.00000000000000       0.70468808971871344     
 CDOM          17           5   1.3009326578253895E-003   100.00000000000000       0.49658530379140947     
 CDOM          17           6   1.3009326578253895E-003   100.00000000000000       0.34993774911115533     
 CDOM          17           7   1.3009326578253895E-003   100.00000000000000       0.24659696394160643     
 CDOM          17           8   1.3009326578253895E-003   100.00000000000000       0.17377394345044514     
 CDOM          17           9   1.3009326578253895E-003   100.00000000000000       0.12245642825298191     
 CDOM          17          10   1.3009326578253895E-003   100.00000000000000        8.6293586499370495E-002
 CDOM          17          11   1.3009326578253895E-003   100.00000000000000        6.0810062625217952E-002
 CDOM          17          12   1.3009326578253895E-003   100.00000000000000        4.2852126867040187E-002
 CDOM          17          13   1.3009326578253895E-003   100.00000000000000        3.0197383422318501E-002
 abs          17           1  0.26830083163712032        7.7972429020552883E-003   3.8009312383912299E-003   6.3000000000000000E-003  0.26197566619326418        1.7000047490091239E-005   8.1653963660334844E-006
 abs          17           2  0.18973935309414522        5.9858617509733732E-003   2.9008763086480799E-003   5.1000000000000004E-003  0.18461113176251864        2.1630309069671692E-005   6.5910225568963093E-006
 abs          17           3  0.13842145318872803        4.6704636573302351E-003   2.2507948834451503E-003   8.3000000000000001E-003  0.13009326578253896        2.2957283026517642E-005   5.2301231625573960E-006
 abs          17           4  0.10359881998354986        3.7735040456303316E-003   1.8008108501994225E-003   1.1900000000000001E-002   9.1675174949566257E-002   1.9375545687643414E-005   4.2694882959652211E-006
 abs          17           5   8.6119899151967591E-002   3.0696687873279956E-003   1.4507864634892330E-003   2.1499999999999998E-002   6.4602403909838679E-002   1.4052967190304133E-005   3.4422749386219598E-006
 abs          17           6   8.6236265756583746E-002   2.4652090371815277E-003   1.1507567688913167E-003   4.0700000000000000E-002   4.5524544602460970E-002   8.9459867303966549E-006   2.7751673923773938E-006
 abs          17           7   8.7088798351795463E-002   2.0630437216337676E-003   9.5073668653170419E-004   5.5000000000000000E-002   3.2080604371222586E-002   5.9338202061908455E-006   2.2601603666765892E-006
 abs          17           8  0.10751228723992179        1.7596929686797594E-003   8.0071587091889887E-004   8.4900000000000003E-002   2.2606819811378655E-002   3.6208748551227786E-006   1.8465536880049581E-006
 abs          17           9  0.21543552751187395        1.5554270758138115E-003   7.0069318667751769E-004  0.19950000000000001        1.5930756667495587E-002   3.2845287653214148E-006   1.4863156130328925E-006
 abs          17          10  0.29623097232082168        1.3508876441240298E-003   6.0067051495370379E-004  0.28499999999999998        1.1226214483791122E-002   3.5597118775284708E-006   1.1981251530552402E-006
 abs          17          11  0.35911563637468646        1.0451103065880906E-003   4.5064055919010084E-004  0.35120000000000001        7.9109796393553172E-003   3.6854267438032456E-006   9.7130858733208778E-007
 abs          17          12  0.46148626433111628        8.4217073082149332E-004   3.5062694095170017E-004  0.45590000000000003        5.5747731298609379E-003   1.0696009060191639E-005   7.9519219512352238E-007
 abs          17          13  0.64723043030441263        8.3749785444409781E-004   3.5060691474442165E-004  0.64329999999999998        3.9284762274969165E-003   1.3109852411419371E-006   6.4309167457976134E-007
 CDOM          18           1   9.3761078903123040E-004   100.00000000000000        2.0137527074704766     
 CDOM          18           2   9.3761078903123040E-004   100.00000000000000        1.4190675485932573     
 CDOM          18           3   9.3761078903123040E-004   100.00000000000000        1.0000000000000000     
 CDOM          18           4   9.3761078903123040E-004   100.00000000000000       0.70468808971871344     
 CDOM          18           5   9.3761078903123040E-004   100.00000000000000       0.49658530379140947     
 CDOM          18           6   9.3761078903123040E-004   100.00000000000000       0.34993774911115533     
 CDOM          18           7   9.3761078903123040E-004   100.00000000000000       0.24659696394160643     
 CDOM          18           8   9.3761078903123040E-004   100.00000000000000       0.17377394345044514     
 CDOM          18           9   9.3761078903123040E-004   100.00000000000000       0.12245642825298191     
 CDOM          18          10   9.3761078903123040E-004   100.00000000000000        8.6293586499370495E-002
 CDOM          18          11   9.3761078903123040E-004   100.00000000000000        6.0810062625217952E-002
 CDOM          18          12   9.3761078903123040E-004   100.00000000000000        4.2852126867040187E-002
 CDOM          18          13   9.3761078903123040E-004   100.00000000000000        3.0197383422318501E-002
 abs          18           1  0.19513145456475237        7.7781215404952942E-003   3.8008706758840601E-003   6.3000000000000000E-003  0.18881162649651703        1.1653580874898969E-005   8.1744873604366702E-006
 abs          18           2  0.13817473670714847        5.9677937101253421E-003   2.9008193473922966E-003   5.1000000000000004E-003  0.13305330439251381        1.4833953922155358E-005   6.5983607125093370E-006
 abs          18           3  0.10208206343181475        4.6526078866755780E-003   2.2507384777648892E-003   8.3000000000000001E-003   9.3761078903123046E-002   1.5748582539258997E-005   5.2359461524365598E-006
 abs          18           4   7.7989877292044485E-002   3.7555351478416516E-003   1.8007539847854760E-003   1.1900000000000001E-002   6.6072315582207344E-002   1.3287468080044023E-005   4.2742417570910690E-006
 abs          18           5   6.8073454838631364E-002   3.0512204980813408E-003   1.4507281529312177E-003   2.1499999999999998E-002   4.6560373850917672E-002   9.6348802970395741E-006   3.4461074166546744E-006
 abs          18           6   7.3519447201840088E-002   2.4463045634518055E-003   1.1506977468288390E-003   4.0700000000000000E-002   3.2810540905592309E-002   6.1280391056725487E-006   2.7782571421091947E-006
 abs          18           7   7.8127523997149839E-002   2.0432973921967650E-003   9.5067575056873889E-004   5.5000000000000000E-002   2.3121197393399549E-002   4.0639270201191618E-006   2.2626767301600850E-006
 abs          18           8  0.10119756160852424        1.7398175055435331E-003   8.0065508413234502E-004   8.4900000000000003E-002   1.6293232423164029E-002   2.4805758002725277E-006   1.8486095599418875E-006
 abs          18           9  0.21098538554162050        1.5357133148825581E-003   7.0063314996018867E-004  0.19950000000000001        1.1481646831622463E-002   2.2507395863335524E-006   1.4879704116873284E-006
 abs          18          10  0.29309461875391624        1.3315063253634643E-003   6.0061168096168919E-004  0.28499999999999998        8.0909797726009501E-003   2.4395222222345117E-006   1.1994590930836814E-006
 abs          18          11  0.35690511708760791        1.0260286385703800E-003   4.5058293563070582E-004  0.35120000000000001        5.7016170799069144E-003   2.5276177012608721E-006   9.7238999973821826E-007
 abs          18          12  0.45992598772058224        8.2334215267730040E-004   3.5056996563867163E-004  0.45590000000000003        4.0178616483471938E-003   7.3299947077885145E-006   7.9607752725821153E-007
 abs          18          13  0.64613288258163304        8.1938312601835225E-004   3.5055214287520756E-004  0.64329999999999998        2.8313392497278647E-003   8.9952424057016718E-007   6.4380766466184226E-007
 CDOM          19           1   5.7431382288998143E-004   100.00000000000000        2.0137527074704766     
 CDOM          19           2   5.7431382288998143E-004   100.00000000000000        1.4190675485932573     
 CDOM          19           3   5.7431382288998143E-004   100.00000000000000        1.0000000000000000     
 CDOM          19           4   5.7431382288998143E-004   100.00000000000000       0.70468808971871344     
 CDOM          19           5   5.7431382288998143E-004   100.00000000000000       0.49658530379140947     
 CDOM          19           6   5.7431382288998143E-004   100.00000000000000       0.34993774911115533     
 CDOM          19           7   5.7431382288998143E-004   100.00000000000000       0.24659696394160643     
 CDOM          19           8   5.7431382288998143E-004   100.00000000000000       0.17377394345044514     
 CDOM          19           9   5.7431382288998143E-004   100.00000000000000       0.12245642825298191     
 CDOM          19          10   5.7431382288998143E-004   100.00000000000000        8.6293586499370495E-002
 CDOM          19          11   5.7431382288998143E-004   100.00000000000000        6.0810062625217952E-002
 CDOM          19          12   5.7431382288998143E-004   100.00000000000000        4.2852126867040187E-002
 CDOM          19          13   5.7431382288998143E-004   100.00000000000000        3.0197383422318501E-002
 abs          19           1  0.12196706459211093        7.7589547274777779E-003   3.8008098693156005E-003   6.3000000000000000E-003  0.11565260157824199        6.2794307461505253E-006   8.1835831227944604E-006
 abs          19           2   8.6613610115574197E-002   5.9496851938111370E-003   2.9007621691520828E-003   5.1000000000000004E-003   8.1499010877170805E-002   7.9935356866228842E-006   6.6057027167654631E-006
 abs          19           3   6.5745110839732002E-002   4.6347106675029854E-003   2.2506818493164935E-003   8.3000000000000001E-003   5.7431382288998141E-002   8.4867785375748128E-006   5.2417721962997199E-006
 abs          19           4   5.2382650361748183E-002   3.7375230133772424E-003   1.8006968865322041E-003   1.1900000000000001E-002   4.0471211075139249E-002   7.1602888976683468E-006   4.2789977112650780E-006
 abs          19           5   5.0028222076708394E-002   3.0327282627085408E-003   1.4506696055632685E-003   2.1499999999999998E-002   2.8519580421142714E-002   5.1917136609705250E-006   3.4499419047074688E-006
 abs          19           6   6.0803491637461231E-002   2.4273623331400518E-003   1.1506385223549417E-003   4.0700000000000000E-002   2.0097408646554279E-002   3.3016423946297645E-006   2.7813485123223004E-006
 abs          19           7   6.9166859052721491E-002   2.0235187889612377E-003   9.5061464282312201E-004   5.5000000000000000E-002   1.4162404507436688E-002   2.1893508713974164E-006   2.2651944134009506E-006
 abs          19           8   9.4883264906998499E-002   1.7199147467199425E-003   8.0059415305193773E-004   8.4900000000000003E-002   9.9800777781692603E-003   1.3364623191244997E-006   1.8506665101221462E-006
 abs          19           9  0.20653554430441309        1.5159744954935355E-003   7.0057298103197180E-004  0.19950000000000001        7.0328419447422763E-003   1.2127335925780438E-006   1.4896260782341551E-006
 abs          19          10  0.28995847520627638        1.3121022638988870E-003   6.0055272746484213E-004  0.28499999999999998        4.9559599553340760E-003   1.3144572095873559E-006   1.2007937327237625E-006
 abs          19          11  0.35469474149461855        1.0069277957753780E-003   4.5052521230855270E-004  0.35120000000000001        3.4924059536468100E-003   1.3620689924142800E-006   9.7347197931280501E-007
 abs          19          12  0.45836580339628313        8.0449259287080971E-004   3.5051288004417087E-004  0.45590000000000003        2.4610568799976330E-003   3.9495529617571774E-006   7.9696332372312060E-007
 abs          19          13  0.64503540674101156        8.0124816092906896E-004   3.5049726442286735E-004  0.64329999999999998        1.7342774714546288E-003   4.8474552667828172E-007   6.4452403025930226E-007
 CDOM          20           1   2.1105469088943167E-004   100.00000000000000        2.0137527074704766     
 CDOM          20           2   2.1105469088943167E-004   100.00000000000000        1.4190675485932573     
 CDOM          20           3   2.1105469088943167E-004   100.00000000000000        1.0000000000000000     
 CDOM          20           4   2.1105469088943167E-004   100.00000000000000       0.70468808971871344     
 CDOM          20           5   2.1105469088943167E-004   100.00000000000000       0.49658530379140947     
 CDOM          20           6   2.1105469088943167E-004   100.00000000000000       0.34993774911115533     
 CDOM          20           7   2.1105469088943167E-004   100.00000000000000       0.24659696394160643     
 CDOM          20           8   2.1105469088943167E-004   100.00000000000000       0.17377394345044514     
 CDOM          20           9   2.1105469088943167E-004   100.00000000000000       0.12245642825298191     
 CDOM          20          10   2.1105469088943167E-004   100.00000000000000        8.6293586499370495E-002
 CDOM          20          11   2.1105469088943167E-004   100.00000000000000        6.0810062625217952E-002
 CDOM          20          12   2.1105469088943167E-004   100.00000000000000        4.2852126867040187E-002
 CDOM          20          13   2.1105469088943167E-004   100.00000000000000        3.0197383422318501E-002
 abs          20           1   4.8810289435756125E-002   7.7397824071113244E-003   3.8007490391760387E-003   6.3000000000000000E-003   4.2501195520293758E-002   9.0110327261364429E-007   8.1928121897588007E-006
 abs          20           2   3.5057846276084589E-002   5.9315716834510875E-003   2.9007049699883236E-003   5.1000000000000004E-003   2.9950086281957347E-002   1.1468418041331239E-006   6.6131523231059592E-006
 abs          20           3   2.9411934344845170E-002   4.6168080803262387E-003   2.2506251979045018E-003   8.3000000000000001E-003   2.1105469088943167E-002   1.2175722771877225E-006   5.2476836248128260E-006
 abs          20           4   2.6778083989178660E-002   3.7195053057190786E-003   1.8006397642490023E-003   1.1900000000000001E-002   1.4872772694904716E-002   1.0274709067468383E-006   4.2838233671941443E-006
 abs          20           5   3.1984864498645176E-002   3.0142301531647067E-003   1.4506110328464990E-003   2.1499999999999998E-002   1.0480665779193045E-002   7.4488686232827688E-007   3.4538325898002787E-006
 abs          20           6   4.8088858615199050E-002   2.4084146236938463E-003   1.1505792753792607E-003   4.0700000000000000E-002   7.3856003469198383E-003   4.7378309053411805E-007   2.7844851886761934E-006
 abs          20           7   6.0207126337938614E-002   2.0037349809084418E-003   9.5055351491489211E-004   5.5000000000000000E-002   5.2045445998968078E-003   3.1398904679632707E-007   2.2677489950083999E-006
 abs          20           8   8.8569625075964817E-002   1.7000071360666247E-003   8.0053320421753728E-004   8.4900000000000003E-002   3.6675805919571280E-003   1.9173040137112982E-007   1.8527536063114673E-006
 abs          20           9  0.20208616571536359        1.4962309387738047E-003   7.0051279518355272E-004  0.19950000000000001        2.5845003612356963E-003   1.7404811818157292E-007   1.4913060097044613E-006
 abs          20          10  0.28682265739715590        1.2926936916656177E-003   6.0049375826862336E-004  0.28499999999999998        1.8212666224365073E-003   1.8862678694872307E-007   1.2021479324188566E-006
 abs          20          11  0.35248459488994804        9.8782278445846017E-004   4.5046747519247523E-004  0.35120000000000001        1.2834248970332357E-003   1.9542309873837519E-007   9.7456981603666757E-007
 abs          20          12  0.45680577891521507        7.8563859151209534E-004   3.5045577914454777E-004  0.45590000000000003        9.0441423898778765E-004   5.6681412507011634E-007   7.9786210213990917E-007
 abs          20          13  0.64393804471300231        7.8310887368831540E-004   3.5044237108885329E-004  0.64329999999999998        6.3732994238670790E-004   6.9519720904348140E-008   6.4525089468361790E-007
 CDOM          21           1   1.2034777300995679E-004   100.00000000000000        2.0137527074704766     
 CDOM          21           2   1.2034777300995679E-004   100.00000000000000        1.4190675485932573     
 CDOM          21           3   1.2034777300995679E-004   100.00000000000000        1.0000000000000000     
 CDOM          21           4   1.2034777300995679E-004   100.00000000000000       0.70468808971871344     
 CDOM          21           5   1.2034777300995679E-004   100.00000000000000       0.49658530379140947     
 CDOM          21           6   1.2034777300995679E-004   100.00000000000000       0.34993774911115533     
 CDOM          21           7   1.2034777300995679E-004   100.00000000000000       0.24659696394160643     
 CDOM          21           8   1.2034777300995679E-004   100.00000000000000       0.17377394345044514     
 CDOM          21           9   1.2034777300995679E-004   100.00000000000000       0.12245642825298191     
 CDOM          21          10   1.2034777300995679E-004   100.00000000000000        8.6293586499370495E-002
 CDOM          21          11   1.2034777300995679E-004   100.00000000000000        6.0810062625217952E-002
 CDOM          21          12   1.2034777300995679E-004   100.00000000000000        4.2852126867040187E-002
 CDOM          21          13   1.2034777300995679E-004   100.00000000000000        3.0197383422318501E-002
 abs          21           1   3.0543288728603277E-002   7.7370451732010357E-003   3.8007414084200129E-003   6.3000000000000000E-003   2.4235065373684285E-002   7.9119697792684623E-010   8.2225637220133088E-006
 abs          21           2   2.2184800043200555E-002   5.9289837420147557E-003   2.9006977962962310E-003   5.1000000000000004E-003   1.7078161922389718E-002   9.5336202018241380E-010   6.6371674488146630E-006
 abs          21           3   2.0340045042424832E-002   4.6142046173847521E-003   2.2506178412497954E-003   8.3000000000000001E-003   1.2034777300995680E-002   1.0012673413569043E-009   5.2667401618124454E-006
 abs          21           4   2.0385064496651641E-002   3.7168917539745099E-003   1.8006323786021918E-003   1.1900000000000001E-002   8.4807642264287803E-003   8.9049893144272672E-010   4.2993797239285269E-006
 abs          21           5   2.7479760543495386E-002   3.0115176264184883E-003   1.4506033043296617E-003   2.1499999999999998E-002   5.9762935420768987E-003   6.2651607039284409E-010   3.4663749024173753E-006
 abs          21           6   4.4914217894985876E-002   2.4056061396637595E-003   1.1505713227643883E-003   4.0700000000000000E-002   4.2114228797644534E-003   4.1840086808112102E-010   2.7945968205535426E-006
 abs          21           7   5.7970015768940300E-002   2.0007695509082651E-003   9.5054515626675812E-004   5.5000000000000000E-002   2.9677395441388955E-003   2.4066004788055683E-010   2.2759841413546640E-006
 abs          21           8   8.6993190350526731E-002   1.6970076966652742E-003   8.0052480436025293E-004   8.4900000000000003E-002   2.0913307101419242E-003   1.5865421542433337E-010   1.8594817305990879E-006
 abs          21           9  0.20097523272220891        1.4932457757825324E-003   7.0050445226802925E-004  0.19950000000000001        1.4737358430999927E-003   1.5754253010544759E-010   1.4967215663926183E-006
 abs          21          10  0.28603973077583256        1.2897525050811235E-003   6.0048555372780991E-004  0.28499999999999998        1.0385240960241312E-003   1.6637344272833284E-010   1.2065134350274430E-006
 abs          21          11  0.35193281383369934        9.8491568739885274E-004   4.5045938657205996E-004  0.35120000000000001        7.3183556135409875E-004   1.6345803449300599E-010   9.7810888719373989E-007
 abs          21          12  0.45641651707282743        7.8276598993070354E-004   3.5044775673042424E-004  0.45590000000000003        5.1571580371884238E-004   5.0963497403654465E-010   8.0075947358168810E-007
 abs          21          13  0.64366406643045626        7.8034750515509953E-004   3.5043467293357209E-004  0.64329999999999998        3.6341878456038195E-004   5.1825004297839629E-011   6.4759407091673437E-007
 CDOM          22           1   8.5954443415526069E-005   100.00000000000000        2.0137527074704766     
 CDOM          22           2   8.5954443415526069E-005   100.00000000000000        1.4190675485932573     
 CDOM          22           3   8.5954443415526069E-005   100.00000000000000        1.0000000000000000     
 CDOM          22           4   8.5954443415526069E-005   100.00000000000000       0.70468808971871344     
 CDOM          22           5   8.5954443415526069E-005   100.00000000000000       0.49658530379140947     
 CDOM          22           6   8.5954443415526069E-005   100.00000000000000       0.34993774911115533     
 CDOM          22           7   8.5954443415526069E-005   100.00000000000000       0.24659696394160643     
 CDOM          22           8   8.5954443415526069E-005   100.00000000000000       0.17377394345044514     
 CDOM          22           9   8.5954443415526069E-005   100.00000000000000       0.12245642825298191     
 CDOM          22          10   8.5954443415526069E-005   100.00000000000000        8.6293586499370495E-002
 CDOM          22          11   8.5954443415526069E-005   100.00000000000000        6.0810062625217952E-002
 CDOM          22          12   8.5954443415526069E-005   100.00000000000000        4.2852126867040187E-002
 CDOM          22          13   8.5954443415526069E-005   100.00000000000000        3.0197383422318501E-002
 abs          22           1   2.3617355041180420E-002   7.7375954392799708E-003   3.8007443913254889E-003   6.3000000000000000E-003   1.7309099314713351E-002   1.3509347493959857E-013   8.2557263319742780E-006
 abs          22           2   1.7304180066959905E-002   5.9295015899193896E-003   2.9007006036004847E-003   5.1000000000000004E-003   1.2197516130836842E-002   1.6228813509993759E-013   6.6639359607766223E-006
 abs          22           3   1.6900732323295059E-002   4.6146628661191671E-003   2.2506203261047279E-003   8.3000000000000001E-003   8.5954443415526063E-003   1.7033681339699108E-013   5.2879815721142441E-006
 abs          22           4   1.7961423973134875E-002   3.7173608159050647E-003   1.8006349220130596E-003   1.1900000000000001E-002   6.0571072533322310E-003   1.5194137699813630E-013   4.3167196507055052E-006
 abs          22           5   2.5771851694897152E-002   3.0119649163585123E-003   1.4506057301964708E-003   2.1499999999999998E-002   4.2683713395720527E-003   1.0672114567780663E-013   3.4803552183813136E-006
 abs          22           6   4.3710676313337561E-002   2.4060294268670483E-003   1.1505736191982485E-003   4.0700000000000000E-002   3.0078704454931356E-003   7.1462330202293612E-014   2.8058677729585784E-006
 abs          22           7   5.7121895641861792E-002   2.0011731172972849E-003   9.5054734656338025E-004   5.5000000000000000E-002   2.1196104783559331E-003   4.0768611262197577E-014   2.2851634650922267E-006
 abs          22           8   8.6395531240216358E-002   1.6973959876212912E-003   8.0052691229178473E-004   8.4900000000000003E-002   1.4936642589404112E-003   2.7000156954717281E-014   1.8669812489301309E-006
 abs          22           9  0.20055407017136920        1.4936188579336958E-003   7.0050647802015660E-004  0.19950000000000001        1.0525674133138360E-003   2.6943263704162014E-014   1.5027580284018539E-006
 abs          22          10  0.28574294309926868        1.2901115232135151E-003   6.0048750333932923E-004  0.28499999999999998        7.4173171978829454E-004   2.8414496322683973E-014   1.2113794519792324E-006
 abs          22          11  0.35172367156244971        9.8525521360410119E-004   4.5046123070434694E-004  0.35120000000000001        5.2268950870138929E-004   2.7834780791649466E-014   9.8205372053550241E-007
 abs          22          12  0.45626913706052491        7.8309685377772197E-004   3.5044955397768910E-004  0.45590000000000003        3.6833307140279501E-004   8.7128225615224606E-014   8.0398903494390025E-007
 abs          22          13  0.64356021013437315        7.8066869896011243E-004   3.5043641766016066E-004  0.64329999999999998        2.5955992846706205E-004   8.7639094999826342E-015   6.5020589738751666E-007
 CDOM          23           1   5.1580276271471077E-005   100.00000000000000        2.0137527074704766     
 CDOM          23           2   5.1580276271471077E-005   100.00000000000000        1.4190675485932573     
 CDOM          23           3   5.1580276271471077E-005   100.00000000000000        1.0000000000000000     
 CDOM          23           4   5.1580276271471077E-005   100.00000000000000       0.70468808971871344     
 CDOM          23           5   5.1580276271471077E-005   100.00000000000000       0.49658530379140947     
 CDOM          23           6   5.1580276271471077E-005   100.00000000000000       0.34993774911115533     
 CDOM          23           7   5.1580276271471077E-005   100.00000000000000       0.24659696394160643     
 CDOM          23           8   5.1580276271471077E-005   100.00000000000000       0.17377394345044514     
 CDOM          23           9   5.1580276271471077E-005   100.00000000000000       0.12245642825298191     
 CDOM          23          10   5.1580276271471077E-005   100.00000000000000        8.6293586499370495E-002
 CDOM          23          11   5.1580276271471077E-005   100.00000000000000        6.0810062625217952E-002
 CDOM          23          12   5.1580276271471077E-005   100.00000000000000        4.2852126867040187E-002
 CDOM          23          13   5.1580276271471077E-005   100.00000000000000        3.0197383422318501E-002
 abs          23           1   1.6695281100536068E-002   7.7381500193507927E-003   3.8007473916046876E-003   6.3000000000000000E-003   1.0386992099375006E-002   1.7909504741140536E-017   8.2890011610442660E-006
 abs          23           2   1.2426280415486794E-002   5.9300235476242762E-003   2.9007034273926470E-003   5.1000000000000004E-003   7.3195896204319424E-003   2.1491487199517888E-017   6.6907950548298488E-006
 abs          23           3   1.3463336922008453E-002   4.6151250161256671E-003   2.2506228263372394E-003   8.3000000000000001E-003   5.1580276271471076E-003   2.2552351351486644E-017   5.3092948613224714E-006
 abs          23           4   1.5539134753544806E-002   3.7178338400345057E-003   1.8006374810745865E-003   1.1900000000000001E-002   3.6348006352906435E-003   2.0137996314771975E-017   4.3341182541407930E-006
 abs          23           5   2.4064895099033742E-002   3.0124161922168323E-003   1.4506081715998929E-003   2.1499999999999998E-002   2.5614007161913295E-003   1.4136217137001963E-017   3.4943828424010144E-006
 abs          23           6   4.2507805754562214E-002   2.4064567796173923E-003   1.1505759311777300E-003   4.0700000000000000E-002   1.8049885776970124E-003   9.4748914761296274E-018   2.8171768651915156E-006
 abs          23           7   5.6274248326632199E-002   2.0015808965814889E-003   9.5054955265050573E-004   5.5000000000000000E-002   1.2719539527814051E-003   5.3895534700566479E-018   2.2943738507857825E-006
 abs          23           8   8.5798205307340614E-002   1.6977885431091182E-003   8.0052903601822022E-004   8.4900000000000003E-002   8.9633080119569516E-004   3.5752413259494914E-018   1.8745061449158930E-006
 abs          23           9  0.20013314245496788        1.4939961896367458E-003   7.0050851938593462E-004  0.19950000000000001        6.3163364005063829E-004   3.5739492748898929E-018   1.5088149172227634E-006
 abs          23          10  0.28544632096514438        1.2904747185552559E-003   6.0048946822738379E-004  0.28499999999999998        4.4510470320936166E-004   3.7672708705958721E-018   1.2162619350682600E-006
 abs          23          11  0.35151464599493221        9.8559883551934736E-004   4.5046308970015953E-004  0.35120000000000001        3.1365998302941995E-004   3.6865645979097745E-018   9.8601190281703034E-007
 abs          23          12  0.45612183968378706        7.8343177639227687E-004   3.5045136591028205E-004  0.45590000000000003        2.2103245426220611E-004   1.1555878588366247E-017   8.0722952483372260E-007
 abs          23          13  0.64345641176452184        7.8099383487432073E-004   3.5043817664666990E-004  0.64329999999999998        1.5575893795987289E-004   1.1578454327080548E-018   6.5282656202995693E-007
 CDOM          24           1   1.7199543276957993E-005   100.00000000000000        2.0137527074704766     
 CDOM          24           2   1.7199543276957993E-005   100.00000000000000        1.4190675485932573     
 CDOM          24           3   1.7199543276957993E-005   100.00000000000000        1.0000000000000000     
 CDOM          24           4   1.7199543276957993E-005   100.00000000000000       0.70468808971871344     
 CDOM          24           5   1.7199543276957993E-005   100.00000000000000       0.49658530379140947     
 CDOM          24           6   1.7199543276957993E-005   100.00000000000000       0.34993774911115533     
 CDOM          24           7   1.7199543276957993E-005   100.00000000000000       0.24659696394160643     
 CDOM          24           8   1.7199543276957993E-005   100.00000000000000       0.17377394345044514     
 CDOM          24           9   1.7199543276957993E-005   100.00000000000000       0.12245642825298191     
 CDOM          24          10   1.7199543276957993E-005   100.00000000000000        8.6293586499370495E-002
 CDOM          24          11   1.7199543276957993E-005   100.00000000000000        6.0810062625217952E-002
 CDOM          24          12   1.7199543276957993E-005   100.00000000000000        4.2852126867040187E-002
 CDOM          24          13   1.7199543276957993E-005   100.00000000000000        3.0197383422318501E-002
 abs          24           1   9.7718857938294823E-003   7.7387184951084069E-003   3.8007504670585367E-003   6.3000000000000000E-003   3.4635626841229791E-003   5.6539601390239561E-022   8.3231097065044228E-006
 abs          24           2   7.5474496986116767E-003   5.9305585836314416E-003   2.9007063219374457E-003   5.1000000000000004E-003   2.4407313714956418E-003   6.7716985026623697E-022   6.7183271160346151E-006
 abs          24           3   1.0025285469860749E-002   4.6155987459236721E-003   2.2506253892154468E-003   8.3000000000000001E-003   1.7199543276957992E-003   7.1031431595683272E-022   5.3311421649505452E-006
 abs          24           4   1.3116383282375103E-002   3.7183187164159942E-003   1.8006401042558104E-003   1.1900000000000001E-002   1.2120313295873868E-003   6.3546409702561920E-022   4.3519527877147314E-006
 abs          24           5   2.2357612804261261E-002   3.0128787754313507E-003   1.4506106741750836E-003   2.1499999999999998E-002   8.5410404232616791E-004   4.4560340672151060E-022   3.5087619350950022E-006
 abs          24           6   4.1304705715319870E-002   2.4068948403482429E-003   1.1505783010862839E-003   4.0700000000000000E-002   6.0187694600785842E-004   2.9917744361373677E-022   2.8287693120145753E-006
 abs          24           7   5.5426439330335003E-002   2.0019988934620639E-003   9.5055181401362972E-004   5.5000000000000000E-002   4.2413551532801091E-004   1.6929158345839583E-022   2.3038150069964859E-006
 abs          24           8   8.5200765465659037E-002   1.6981909347728137E-003   8.0053121295712096E-004   8.4900000000000003E-002   2.9888324607835822E-004   1.1263259989860095E-022   1.8822195806866213E-006
 abs          24           9  0.19971213448729211        1.4943829760835632E-003   7.0051061190061210E-004  0.19950000000000001        2.1061946372788636E-004   1.1294342570861767E-022   1.5150235642231907E-006
 abs          24          10  0.28514964229430301        1.2908470144435448E-003   6.0049148234813949E-004  0.28499999999999998        1.4842102755198409E-004   1.1894966212579385E-022   1.2212667510524464E-006
 abs          24          11  0.35130558059963890        9.8595106755736584E-004   4.5046499527548532E-004  0.35120000000000001        1.0459053037969619E-004   1.1618500791014563E-022   9.9006925920510123E-007
 abs          24          12  0.45597451425226265        7.8377509116350861E-004   3.5045322324319457E-004  0.45590000000000003        7.3703701055935196E-005   3.6510627161378895E-022   8.1055120671186856E-007
 abs          24          13  0.64335259363319097        7.8132711772041898E-004   3.5043997970686747E-004  0.64329999999999998        5.1938120302306091E-005   3.6327864384020700E-023   6.5551288864953130E-007
 CDOM          25           1   9.7478814636378195E-009   100.00000000000000        2.0137527074704766     
 CDOM          25           2   9.7478814636378195E-009   100.00000000000000        1.4190675485932573     
 CDOM          25           3   9.7478814636378195E-009   100.00000000000000        1.0000000000000000     
 CDOM          25           4   9.7478814636378195E-009   100.00000000000000       0.70468808971871344     
 CDOM          25           5   9.7478814636378195E-009   100.00000000000000       0.49658530379140947     
 CDOM          25           6   9.7478814636378195E-009   100.00000000000000       0.34993774911115533     
 CDOM          25           7   9.7478814636378195E-009   100.00000000000000       0.24659696394160643     
 CDOM          25           8   9.7478814636378195E-009   100.00000000000000       0.17377394345044514     
 CDOM          25           9   9.7478814636378195E-009   100.00000000000000       0.12245642825298191     
 CDOM          25          10   9.7478814636378195E-009   100.00000000000000        8.6293586499370495E-002
 CDOM          25          11   9.7478814636378195E-009   100.00000000000000        6.0810062625217952E-002
 CDOM          25          12   9.7478814636378195E-009   100.00000000000000        4.2852126867040187E-002
 CDOM          25          13   9.7478814636378195E-009   100.00000000000000        3.0197383422318501E-002
 abs          25           1   6.3102212097699041E-003   7.7376371250158912E-003   3.8007446168463362E-003   6.3000000000000000E-003   1.9629822689501932E-006   6.9323759134398496E-026   8.2582275009534730E-006
 abs          25           2   5.1080492451034791E-003   5.9295408235443678E-003   2.9007008158553750E-003   5.1000000000000004E-003   1.3832902252582173E-006   8.7318747687897317E-026   6.6659548782206133E-006
 abs          25           3   8.3062643717744244E-003   4.6146976041799093E-003   2.2506205140386129E-003   8.3000000000000001E-003   9.7478814636378197E-007   9.2519529753251635E-026   5.2895836280617017E-006
 abs          25           4   1.1905004949048221E-002   3.7173963713370835E-003   1.8006351143689337E-003   1.1900000000000001E-002   6.8692159674153915E-007   7.8848149911358075E-026   4.3180274514789410E-006
 abs          25           5   2.1503965475100546E-002   3.0119988370227346E-003   1.4506059137082928E-003   2.1499999999999998E-002   4.8406546779432361E-007   5.6838198862845256E-026   3.4814096327548957E-006
 abs          25           6   4.0703147833013258E-002   2.4060615492769513E-003   1.1505737929815884E-003   4.0700000000000000E-002   3.4111516979877729E-007   3.6489400747188740E-026   2.8067178434613113E-006
 abs          25           7   5.5002526235579503E-002   2.0012037683940376E-003   9.5054751238701177E-004   5.5000000000000000E-002   2.4037979737957494E-007   2.3559920919082604E-026   2.2858557821266644E-006
 abs          25           8   8.4902036939652981E-002   1.6974254943739936E-003   8.0052707192456330E-004   8.4900000000000003E-002   1.6939278022238409E-007   1.4585302856480850E-026   1.8675468727646417E-006
 abs          25           9  0.19950162258238127        1.4936472203539496E-003   7.0050663146211485E-004  0.19950000000000001        1.1936907470705370E-007   1.3470048781006600E-026   1.5032133065461059E-006
 abs          25          10  0.28500129586441875        1.2901388230496227E-003   6.0048765103269837E-004  0.28499999999999998        8.4117965226804048E-008   1.4524166416332746E-026   1.2117464535712776E-006
 abs          25          11  0.35120104162817345        9.8528104216670910E-004   4.5046137043812189E-004  0.35120000000000001        5.9276928226701703E-008   1.4896298166658816E-026   9.8235124521145878E-007
 abs          25          12  0.45590084600435821        7.8312202844096955E-004   3.5044969017386567E-004  0.45590000000000003        4.1771745316467722E-008   4.3809095030464662E-026   8.0423261283795254E-007
 abs          25          13  0.64330067983893624        7.8069313799951270E-004   3.5043654987657735E-004  0.64329999999999998        2.9436051411278250E-008   5.1917785991393152E-027   6.5040288487901536E-007
 CDOM          26           1   8.8918404668574916E-009   100.00000000000000        2.0137527074704766     
 CDOM          26           2   8.8918404668574916E-009   100.00000000000000        1.4190675485932573     
 CDOM          26           3   8.8918404668574916E-009   100.00000000000000        1.0000000000000000     
 CDOM          26           4   8.8918404668574916E-009   100.00000000000000       0.70468808971871344     
 CDOM          26           5   8.8918404668574916E-009   100.00000000000000       0.49658530379140947     
 CDOM          26           6   8.8918404668574916E-009   100.00000000000000       0.34993774911115533     
 CDOM          26           7   8.8918404668574916E-009   100.00000000000000       0.24659696394160643     
 CDOM          26           8   8.8918404668574916E-009   100.00000000000000       0.17377394345044514     
 CDOM          26           9   8.8918404668574916E-009   100.00000000000000       0.12245642825298191     
 CDOM          26          10   8.8918404668574916E-009   100.00000000000000        8.6293586499370495E-002
 CDOM          26          11   8.8918404668574916E-009   100.00000000000000        6.0810062625217952E-002
 CDOM          26          12   8.8918404668574916E-009   100.00000000000000        4.2852126867040187E-002
 CDOM          26          13   8.8918404668574916E-009   100.00000000000000        3.0197383422318501E-002
 abs          26           1   6.3099445985406689E-003   7.7359000293202576E-003   3.8007352191586226E-003   6.3000000000000000E-003   1.7905967814529819E-006   4.4670106873126791E-021   8.1540017592154694E-006
 abs          26           2   5.1078436371748111E-003   5.9279059099484775E-003   2.9006919709728212E-003   5.1000000000000004E-003   1.2618122253785785E-006   5.6869124434370585E-021   6.5818249494320935E-006
 abs          26           3   8.3061120087029160E-003   4.6132500244335482E-003   2.2506126826321855E-003   8.3000000000000001E-003   8.8918404668574912E-007   6.0380299796567025E-021   5.2228246562295161E-006
 abs          26           4   1.1904890127738885E-002   3.7159147308908082E-003   1.8006270986941192E-003   1.1900000000000001E-002   6.2659740726733586E-007   5.0938634359289828E-021   4.2635303316159318E-006
 abs          26           5   2.1503879027059813E-002   3.0105853179762882E-003   1.4505982665702515E-003   2.1499999999999998E-002   4.4155572994991755E-007   3.6934638571980495E-021   3.4374713298653447E-006
 abs          26           6   4.0703082453779391E-002   2.4047229637703164E-003   1.1505665512339975E-003   4.0700000000000000E-002   3.1115906384275948E-007   2.3485493607962864E-021   2.7712947155503555E-006
 abs          26           7   5.5002476276455596E-002   1.9999264921472483E-003   9.5054060232251656E-004   5.5000000000000000E-002   2.1927008629801737E-007   1.5575631633207714E-021   2.2570063692991838E-006
 abs          26           8   8.4901998493886674E-002   1.6961959031070845E-003   8.0052041983580933E-004   8.4900000000000003E-002   1.5451701824580734E-007   9.5074002024452665E-022   1.8439768684238904E-006
 abs          26           9  0.19950159312779914        1.4924653140669206E-003   7.0050023734910202E-004  0.19950000000000001        1.0888630241666955E-007   8.6264984532637190E-022   1.4842414966937961E-006
 abs          26          10  0.28500127318407970        1.2890011956724825E-003   6.0048149646858807E-004  0.28499999999999998        7.6730880446536978E-008   9.3504347741073384E-022   1.1964531993097208E-006
 abs          26          11  0.35120102402448805        9.8420472404941463E-004   4.5045554755710734E-004  0.35120000000000001        5.4071337564305128E-008   9.6902705286601888E-022   9.6995315044262439E-007
 abs          26          12  0.45590083218595184        7.8207295888360661E-004   3.5044401470756030E-004  0.45590000000000003        3.8103427576725908E-008   2.8094607211444111E-021   7.9408252426346713E-007
 abs          26          13  0.64330066904528782        7.7967472307207265E-004   3.5043104025181990E-004  0.64329999999999998        2.6851031590778319E-008   3.4491932796436013E-022   6.4219425619964968E-007
 CDOM          27           1   8.1952161723526239E-009   100.00000000000000        2.0137527074704766     
 CDOM          27           2   8.1952161723526239E-009   100.00000000000000        1.4190675485932573     
 CDOM          27           3   8.1952161723526239E-009   100.00000000000000        1.0000000000000000     
 CDOM          27           4   8.1952161723526239E-009   100.00000000000000       0.70468808971871344     
 CDOM          27           5   8.1952161723526239E-009   100.00000000000000       0.49658530379140947     
 CDOM          27           6   8.1952161723526239E-009   100.00000000000000       0.34993774911115533     
 CDOM          27           7   8.1952161723526239E-009   100.00000000000000       0.24659696394160643     
 CDOM          27           8   8.1952161723526239E-009   100.00000000000000       0.17377394345044514     
 CDOM          27           9   8.1952161723526239E-009   100.00000000000000       0.12245642825298191     
 CDOM          27          10   8.1952161723526239E-009   100.00000000000000        8.6293586499370495E-002
 CDOM          27          11   8.1952161723526239E-009   100.00000000000000        6.0810062625217952E-002
 CDOM          27          12   8.1952161723526239E-009   100.00000000000000        4.2852126867040187E-002
 CDOM          27          13   8.1952161723526239E-009   100.00000000000000        3.0197383422318501E-002
 abs          27           1   6.3091675148788289E-003   7.7252866833746742E-003   3.8006778009570487E-003   6.3000000000000000E-003   1.6503138755380933E-006   1.0326187212367645E-015   7.5172010022577943E-006
 abs          27           2   5.1072307625714755E-003   5.9179168784702935E-003   2.9006379303125164E-003   5.1000000000000004E-003   1.1629565323892254E-006   1.3146165449551604E-015   6.0678060377701803E-006
 abs          27           3   8.3056344608226917E-003   4.6044055694792639E-003   2.2505648341308747E-003   8.3000000000000001E-003   8.1952161723526235E-007   1.3957824409878139E-015   4.8149392040605482E-006
 abs          27           4   1.1904508069739670E-002   3.7068621711140119E-003   1.8005781243457190E-003   1.1900000000000001E-002   5.7750712293270766E-007   1.1775251479823063E-015   3.9305626155596318E-006
 abs          27           5   2.1503575978500906E-002   3.0019489678446529E-003   1.4505515439160314E-003   2.1499999999999998E-002   4.0696239125839992E-007   8.5380068714541468E-016   3.1690161087949528E-006
 abs          27           6   4.0702841647250736E-002   2.3965444442483439E-003   1.1505223054433752E-003   4.0700000000000000E-002   2.8678155008324152E-007   5.4290362882264260E-016   2.5548657001137603E-006
 abs          27           7   5.5002282833127671E-002   1.9921225613059989E-003   9.5049838305665663E-004   5.5000000000000000E-002   2.0209154269473098E-007   3.6005396223616900E-016   2.0807415846118800E-006
 abs          27           8   8.4901842379834627E-002   1.6886833190174070E-003   8.0047977675587521E-004   8.4900000000000003E-002   1.4241150316985784E-007   2.1977803736588788E-016   1.6999683312295405E-006
 abs          27           9  0.19950146868280086        1.4852440767287598E-003   7.0046117045509371E-004  0.19950000000000001        1.0035569012273760E-007   1.9941499583405845E-016   1.3683271105416966E-006
 abs          27          10  0.28500117373359374        1.2820504946035524E-003   6.0044389317579633E-004  0.28499999999999998        7.0719459564995113E-008   2.1614980427664909E-016   1.1030141339914216E-006
 abs          27          11  0.35120094403815616        9.7762861166098849E-004   4.5041997078907719E-004  0.35120000000000001        4.9835160866796199E-008   2.2400540789405792E-016   8.9420299503981607E-007
 abs          27          12  0.45590076718553213        7.7566333035316020E-004   3.5040933861720197E-004  0.45590000000000003        3.5118244312047410E-008   6.4945067310155920E-016   7.3206728714798128E-007
 abs          27          13  0.64330061678840256        7.7345238888177010E-004   3.5039737742384208E-004  0.64329999999999998        2.4747408498531760E-008   7.9733211257319155E-017   5.9204099396866947E-007
 CDOM          28           1   1.8284935549523885E-008   100.00000000000000        2.0137527074704766     
 CDOM          28           2   1.8284935549523885E-008   100.00000000000000        1.4190675485932573     
 CDOM          28           3   1.8284935549523885E-008   100.00000000000000        1.0000000000000000     
 CDOM          28           4   1.8284935549523885E-008   100.00000000000000       0.70468808971871344     
 CDOM          28           5   1.8284935549523885E-008   100.00000000000000       0.49658530379140947     
 CDOM          28           6   1.8284935549523885E-008   100.00000000000000       0.34993774911115533     
 CDOM          28           7   1.8284935549523885E-008   100.00000000000000       0.24659696394160643     
 CDOM          28           8   1.8284935549523885E-008   100.00000000000000       0.17377394345044514     
 CDOM          28           9   1.8284935549523885E-008   100.00000000000000       0.12245642825298191     
 CDOM          28          10   1.8284935549523885E-008   100.00000000000000        8.6293586499370495E-002
 CDOM          28          11   1.8284935549523885E-008   100.00000000000000        6.0810062625217952E-002
 CDOM          28          12   1.8284935549523885E-008   100.00000000000000        4.2852126867040187E-002
 CDOM          28          13   1.8284935549523885E-008   100.00000000000000        3.0197383422318501E-002
 abs          28           1   6.3098038918060284E-003   7.7020250806123930E-003   3.8005519531129511E-003   6.3000000000000000E-003   3.6821338468776888E-006   3.2269367541278203E-010   6.1214352654749600E-006
 abs          28           2   5.1075363252160123E-003   5.8960236094094693E-003   2.9005194852795681E-003   5.1000000000000004E-003   2.5947558666448563E-006   4.1081808410004816E-010   4.9411585312820745E-006
 abs          28           3   8.3057498490577749E-003   4.5850210160327358E-003   2.2504599612850071E-003   8.3000000000000001E-003   1.8284935549523885E-006   4.3618245216163759E-010   3.9209193203695823E-006
 abs          28           4   1.1904489636072890E-002   3.6870214921626834E-003   1.8004707838517623E-003   1.1900000000000001E-002   1.2885176303023781E-006   3.6797697938441322E-010   3.2007504656078225E-006
 abs          28           5   2.1503488874903349E-002   2.9830205825348267E-003   1.4504491388617870E-003   2.1499999999999998E-002   9.0800302746666613E-007   2.6681298348171184E-010   2.5806050628963068E-006
 abs          28           6   4.0702720516379083E-002   2.3786195771916419E-003   1.1504253293174390E-003   4.0700000000000000E-002   6.3985891888429346E-007   1.6965755489039139E-010   2.0804878026450844E-006
 abs          28           7   5.5002145410753940E-002   1.9750187827251970E-003   9.5040584886088553E-004   5.5000000000000000E-002   4.5090095923805388E-007   1.1251697653816226E-010   1.6943972777311411E-006
 abs          28           8   8.4901702137792689E-002   1.6722181332186590E-003   8.0039069729615690E-004   8.4900000000000003E-002   3.1774453561779976E-007   6.8680705856511767E-011   1.3843245763753832E-006
 abs          28           9  0.19950133823436295        1.4694174664523240E-003   7.0037554569644239E-004  0.19950000000000001        2.2391078982306697E-007   6.2317248964637673E-011   1.1142612558397231E-006
 abs          28          10  0.28500105606541298        1.2668168363598922E-003   6.0036147632337841E-004  0.28499999999999998        1.5778726674782540E-007   6.7546881871408090E-011   8.9821059941119516E-007
 abs          28          11  0.35120083943154029        9.6321597353865053E-004   4.5034199568012710E-004  0.35120000000000001        1.1119080758646214E-007   7.0001760476766948E-011   7.2817073092577947E-007
 abs          28          12  0.45590067469756557        7.6161558310114841E-004   3.5033333761117327E-004  0.45590000000000003        7.8354837792385062E-008   2.0295353976175537E-010   5.9613977421945678E-007
 abs          28          13  0.64330053735367654        7.5981511792072381E-004   3.5032359719407993E-004  0.64329999999999998        5.5215720964135477E-008   2.4916653617058015E-011   4.8211303888217823E-007
 CDOM          29           1   6.0038285941465130E-008   100.00000000000000        2.0137527074704766     
 CDOM          29           2   6.0038285941465130E-008   100.00000000000000        1.4190675485932573     
 CDOM          29           3   6.0038285941465130E-008   100.00000000000000        1.0000000000000000     
 CDOM          29           4   6.0038285941465130E-008   100.00000000000000       0.70468808971871344     
 CDOM          29           5   6.0038285941465130E-008   100.00000000000000       0.49658530379140947     
 CDOM          29           6   6.0038285941465130E-008   100.00000000000000       0.34993774911115533     
 CDOM          29           7   6.0038285941465130E-008   100.00000000000000       0.24659696394160643     
 CDOM          29           8   6.0038285941465130E-008   100.00000000000000       0.17377394345044514     
 CDOM          29           9   6.0038285941465130E-008   100.00000000000000       0.12245642825298191     
 CDOM          29          10   6.0038285941465130E-008   100.00000000000000        8.6293586499370495E-002
 CDOM          29          11   6.0038285941465130E-008   100.00000000000000        6.0810062625217952E-002
 CDOM          29          12   6.0038285941465130E-008   100.00000000000000        4.2852126867040187E-002
 CDOM          29          13   6.0038285941465130E-008   100.00000000000000        3.0197383422318501E-002
 abs          29           1   6.3165586697950925E-003   7.6744540223448897E-003   3.8004027840380520E-003   6.3000000000000000E-003   1.2090226086651206E-005   1.5328384228083552E-009   4.4669108700182978E-006
 abs          29           2   5.1121274335029811E-003   5.8700743935801679E-003   2.9003790908441120E-003   5.1000000000000004E-003   8.5198383252695946E-006   1.9514362249339054E-009   3.6056437414853579E-006
 abs          29           3   8.3088670591096921E-003   4.5620455673698887E-003   2.2503356550634466E-003   8.3000000000000001E-003   6.0038285941465132E-006   2.0719190622994698E-009   2.8611585964823086E-006
 abs          29           4   1.1906568214112734E-002   3.6635053758380873E-003   1.8003435525839927E-003   1.1900000000000001E-002   4.2308265030076956E-006   1.7479391264282752E-009   2.3356396705978031E-006
 abs          29           5   2.1504865789925793E-002   2.9605859614134388E-003   1.4503277582247182E-003   2.1499999999999998E-002   2.9814130463357969E-006   1.2673950381899220E-009   1.8831094844194786E-006
 abs          29           6   4.0703619937946633E-002   2.3573745829771702E-003   1.1503103841665014E-003   4.0700000000000000E-002   2.1009662642848228E-006   8.0589646279552370E-010   1.5181657858885719E-006
 abs          29           7   5.5002717489621482E-002   1.9547472249479190E-003   9.5029616940669971E-004   5.5000000000000000E-002   1.4805259033423333E-006   5.3446752142759135E-010   1.2364292506227119E-006
 abs          29           8   8.4902053799369839E-002   1.6527035742116797E-003   8.0028511301442895E-004   8.4900000000000003E-002   1.0433089706053818E-006   3.2624169846383991E-010   1.0101641575335498E-006
 abs          29           9  0.19950154859798158        1.4506598414868199E-003   7.0027405645596097E-004  0.19950000000000001        7.3520740548230367E-007   2.9601576765993138E-010   8.1309456032686012E-007
 abs          29          10  0.28500117385164148        1.2487620376432141E-003   6.0026378950691554E-004  0.28499999999999998        5.1809190211637610E-007   3.2085685746467006E-010   6.5543888256150843E-007
 abs          29          11  0.35120089678373489        9.4613435491377345E-004   4.5024957386025489E-004  0.35120000000000001        3.6509319280112374E-007   3.3251703128035095E-010   5.3135802506100013E-007
 abs          29          12  0.45590069325377108        7.4496646285686775E-004   3.5024325576996188E-004  0.45590000000000003        2.5727682460432990E-007   9.6405776752541896E-010   4.3501288864884076E-007
 abs          29          13  0.64330053322399594        7.4365246108166843E-004   3.5023614749314853E-004  0.64329999999999998        1.8129991405932171E-007   1.1835659965718003E-010   3.5180572538379405E-007
 CDOM          30           1   1.7615895068566692E-008   100.00000000000000        2.0137527074704766     
 CDOM          30           2   1.7615895068566692E-008   100.00000000000000        1.4190675485932573     
 CDOM          30           3   1.7615895068566692E-008   100.00000000000000        1.0000000000000000     
 CDOM          30           4   1.7615895068566692E-008   100.00000000000000       0.70468808971871344     
 CDOM          30           5   1.7615895068566692E-008   100.00000000000000       0.49658530379140947     
 CDOM          30           6   1.7615895068566692E-008   100.00000000000000       0.34993774911115533     
 CDOM          30           7   1.7615895068566692E-008   100.00000000000000       0.24659696394160643     
 CDOM          30           8   1.7615895068566692E-008   100.00000000000000       0.17377394345044514     
 CDOM          30           9   1.7615895068566692E-008   100.00000000000000       0.12245642825298191     
 CDOM          30          10   1.7615895068566692E-008   100.00000000000000        8.6293586499370495E-002
 CDOM          30          11   1.7615895068566692E-008   100.00000000000000        6.0810062625217952E-002
 CDOM          30          12   1.7615895068566692E-008   100.00000000000000        4.2852126867040187E-002
 CDOM          30          13   1.7615895068566692E-008   100.00000000000000        3.0197383422318501E-002
 abs          30           1   6.3055383892758592E-003   7.6331775630163468E-003   3.8001794872627921E-003   6.3000000000000000E-003   3.5474056388841995E-006   4.2051324011066166E-010   1.9905631237353896E-006
 abs          30           2   5.1041071115836235E-003   5.8312259470464914E-003   2.9001689291843491E-003   5.1000000000000004E-003   2.4998145031226986E-006   5.3534336748664165E-010   1.6067617371328144E-006
 abs          30           3   8.3030371591178414E-003   4.5276481197248745E-003   2.2501495731849300E-003   8.3000000000000001E-003   1.7615895068566693E-006   5.6839447556499209E-010   1.2750012165102497E-006
 abs          30           4   1.1902282667985827E-002   3.6282986397884699E-003   1.8001530924866001E-003   1.1900000000000001E-002   1.2413711444553567E-006   4.7952177082287859E-010   1.0408173196002038E-006
 abs          30           5   2.1501714286113513E-002   2.9269976552225231E-003   1.4501460540703166E-003   2.1499999999999998E-002   8.7477946041817826E-007   3.4768916993002351E-010   8.3915896392766429E-007
 abs          30           6   4.0701293199011578E-002   2.3255665660162467E-003   1.1501383117402824E-003   4.0700000000000000E-002   6.1644666688725295E-007   2.2108695382917324E-010   6.7653125774013240E-007
 abs          30           7   5.5000985531912301E-002   1.9243957114506416E-003   9.5013197721052517E-004   5.5000000000000000E-002   4.3440262410224631E-007   1.4661963496129359E-010   5.5098266856335793E-007
 abs          30           8   8.4900756361344865E-002   1.6234850056269430E-003   8.0012705022566985E-004   8.4900000000000003E-002   3.0611835534740840E-007   8.9498778854020071E-011   4.5015349072708816E-007
 abs          30           9  0.19950057813369687        1.4225742773078778E-003   7.0012212319520866E-004  0.19950000000000001        2.1571795905759949E-007   8.1208442415126253E-011   3.6233452938582092E-007
 abs          30          10  0.28500044418125953        1.2217285867347448E-003   6.0011754805577204E-004  0.28499999999999998        1.5201387648631941E-007   8.8022777777307093E-011   2.9207936031280722E-007
 abs          30          11  0.35120034399952899        9.2055764308474823E-004   4.5011121328269321E-004  0.35120000000000001        1.0712236823188086E-007   9.1220517791700630E-011   2.3678594020904634E-007
 abs          30          12  0.45590026960456032        7.2003721461548953E-004   3.5010839782110496E-004  0.45590000000000003        7.5487857035468755E-008   2.6447749134267878E-010   1.9385222577553794E-007
 abs          30          13  0.64330021000097082        7.1945169878489341E-004   3.5010523031016051E-004  0.64329999999999998        5.3195393771283807E-008   3.2468404202723080E-011   1.5677310876478069E-007
 CDOM          31           1   1.7613946019086055E-008   100.00000000000000        2.0137527074704766     
 CDOM          31           2   1.7613946019086055E-008   100.00000000000000        1.4190675485932573     
 CDOM          31           3   1.7613946019086055E-008   100.00000000000000        1.0000000000000000     
 CDOM          31           4   1.7613946019086055E-008   100.00000000000000       0.70468808971871344     
 CDOM          31           5   1.7613946019086055E-008   100.00000000000000       0.49658530379140947     
 CDOM          31           6   1.7613946019086055E-008   100.00000000000000       0.34993774911115533     
 CDOM          31           7   1.7613946019086055E-008   100.00000000000000       0.24659696394160643     
 CDOM          31           8   1.7613946019086055E-008   100.00000000000000       0.17377394345044514     
 CDOM          31           9   1.7613946019086055E-008   100.00000000000000       0.12245642825298191     
 CDOM          31          10   1.7613946019086055E-008   100.00000000000000        8.6293586499370495E-002
 CDOM          31          11   1.7613946019086055E-008   100.00000000000000        6.0810062625217952E-002
 CDOM          31          12   1.7613946019086055E-008   100.00000000000000        4.2852126867040187E-002
 CDOM          31          13   1.7613946019086055E-008   100.00000000000000        3.0197383422318501E-002
 abs          31           1   6.3055311112806345E-003   7.6330628053320332E-003   3.8001788664241169E-003   6.3000000000000000E-003   3.5470131485173367E-006   4.2045992246916026E-010   1.9836776721952081E-006
 abs          31           2   5.1041012770724360E-003   5.8311179398102524E-003   2.9001683448655847E-003   5.1000000000000004E-003   2.4995379198358411E-006   5.3527994519621427E-010   1.6012038726543019E-006
 abs          31           3   8.3030325538572397E-003   4.5275524883002802E-003   2.2501490558193061E-003   8.3000000000000001E-003   1.7613946019086055E-006   5.6832804318477440E-010   1.2705909272884340E-006
 abs          31           4   1.1902278930342703E-002   3.6282007582145726E-003   1.8001525629476732E-003   1.1900000000000001E-002   1.2412337972598288E-006   4.7946194045866863E-010   1.0372170835007625E-006
 abs          31           5   2.1501711286594428E-002   2.9269042739367896E-003   1.4501455488779660E-003   2.1499999999999998E-002   8.7468267348533358E-007   3.4764737259948446E-010   8.3625627357248980E-007
 abs          31           6   4.0701290790625289E-002   2.3254781350428876E-003   1.1501378333291527E-003   4.0700000000000000E-002   6.1637846228843690E-007   2.2105872136660685E-010   6.7419110427549562E-007
 abs          31           7   5.5000983577958670E-002   1.9243113307271162E-003   9.5013152071128670E-004   5.5000000000000000E-002   4.3435456113379658E-007   1.4660395522919009E-010   5.4907679357821619E-007
 abs          31           8   8.4900754770362810E-002   1.6234037751017567E-003   8.0012661076902527E-004   8.4900000000000003E-002   3.0608448594598531E-007   8.9488236192222928E-011   4.4859638861407978E-007
 abs          31           9  0.19950057685648664        1.4224961969858932E-003   7.0012170078117186E-004  0.19950000000000001        2.1569409169381076E-007   8.1197753290237078E-011   3.6108119719370294E-007
 abs          31          10  0.28500044315411299        1.2216534316058687E-003   6.0011714146702695E-004  0.28499999999999998        1.5199705743932449E-007   8.8011554524578306E-011   2.9106904405740146E-007
 abs          31          11  0.35120034316861221        9.2048653822206998E-004   4.5011082860588680E-004  0.35120000000000001        1.0711051604978315E-007   9.1209627479864572E-011   2.3596688649642345E-007
 abs          31          12  0.45590026892562974        7.1996790987092032E-004   3.5010802288293737E-004  0.45590000000000003        7.5479504943907310E-008   2.6444296410593547E-010   1.9318168180201698E-007
 abs          31          13  0.64330020945279631        7.1938441917843534E-004   3.5010486632797676E-004  0.64329999999999998        5.3189508151836218E-008   3.2465053353132941E-011   1.5623082320230234E-007
 CDOM          32           1   5.0512702761071816E-010   100.00000000000000        2.0137527074704766     
 CDOM          32           2   5.0512702761071816E-010   100.00000000000000        1.4190675485932573     
 CDOM          32           3   5.0512702761071816E-010   100.00000000000000        1.0000000000000000     
 CDOM          32           4   5.0512702761071816E-010   100.00000000000000       0.70468808971871344     
 CDOM          32           5   5.0512702761071816E-010   100.00000000000000       0.49658530379140947     
 CDOM          32           6   5.0512702761071816E-010   100.00000000000000       0.34993774911115533     
 CDOM          32           7   5.0512702761071816E-010   100.00000000000000       0.24659696394160643     
 CDOM          32           8   5.0512702761071816E-010   100.00000000000000       0.17377394345044514     
 CDOM          32           9   5.0512702761071816E-010   100.00000000000000       0.12245642825298191     
 CDOM          32          10   5.0512702761071816E-010   100.00000000000000        8.6293586499370495E-002
 CDOM          32          11   5.0512702761071816E-010   100.00000000000000        6.0810062625217952E-002
 CDOM          32          12   5.0512702761071816E-010   100.00000000000000        4.2852126867040187E-002
 CDOM          32          13   5.0512702761071816E-010   100.00000000000000        3.0197383422318501E-002
 abs          32           1   6.3005672634797024E-003   7.6077590562578521E-003   3.8000419764942436E-003   6.3000000000000000E-003   1.0172009194675979E-007   1.4946567852818622E-014   4.6554337280898267E-007
 abs          32           2   5.1004474626971490E-003   5.8073026411849769E-003   2.9000395072887029E-003   5.1000000000000004E-003   7.1680937279974050E-008   1.7765242554531725E-014   3.7578174210398268E-007
 abs          32           3   8.3003487039013356E-003   4.5064658802207698E-003   2.2500349804118868E-003   8.3000000000000001E-003   5.0512702761071817E-008   1.8605361492664630E-014   2.9819117996915232E-007
 abs          32           4   1.1900279017088190E-002   3.6066180185783869E-003   1.8000358034804004E-003   1.1900000000000001E-002   3.5595700015228878E-008   1.6769245035801914E-014   2.4342137140338964E-007
 abs          32           5   2.1500221342358246E-002   2.9063137418660909E-003   1.4500341573433818E-003   2.1499999999999998E-002   2.5083865845932018E-008   1.1709901755854026E-014   1.9625848069398289E-007
 abs          32           6   4.0700175900200836E-002   2.3059790374838737E-003   1.1500323465926654E-003   4.0700000000000000E-002   1.7676301505730311E-008   7.9150523974414688E-015   1.5822389141220327E-007
 abs          32           7   5.5000141317472009E-002   1.9057051884454914E-003   9.5003086506935668E-004   5.5000000000000000E-002   1.2456279141365111E-008   4.3863836985481451E-015   1.2886118848666940E-007
 abs          32           8   8.4900114057537640E-002   1.6054921947478479E-003   8.0002971277344655E-004   8.4900000000000003E-002   8.7777915531316378E-009   2.9529068184786942E-015   1.0527974313196602E-007
 abs          32           9  0.19950009092667309        1.4052792010488349E-003   7.0002856047753244E-004  0.19950000000000001        6.1856051615253918E-009   2.9977199103138248E-015   8.4741064919805013E-008
 abs          32          10  0.28500007266904775        1.2050814211842177E-003   6.0002749048846565E-004  0.28499999999999998        4.3589222850295417E-009   3.1464180106130060E-015   6.8310122350076216E-008
 abs          32          11  0.35120005845004570        9.0480757214123249E-004   4.5002600896514353E-004  0.35120000000000001        3.0716806182697968E-009   3.0507693298905517E-015   5.5378361994271137E-008
 abs          32          12  0.45590004750181684        7.0468586145552175E-004   3.5002535051033388E-004  0.45590000000000003        2.1645767471145407E-009   9.6821574235748707E-015   4.5337230423881311E-008
 abs          32          13  0.64330003819069637        7.0454893693262582E-004   3.5002460974866871E-004  0.64329999999999998        1.5253514529736921E-009   9.3694441975528035E-016   3.6665344067635563E-008
 CDOM          33           1   1.8586450729225740E-010   100.00000000000000        2.0137527074704766     
 CDOM          33           2   1.8586450729225740E-010   100.00000000000000        1.4190675485932573     
 CDOM          33           3   1.8586450729225740E-010   100.00000000000000        1.0000000000000000     
 CDOM          33           4   1.8586450729225740E-010   100.00000000000000       0.70468808971871344     
 CDOM          33           5   1.8586450729225740E-010   100.00000000000000       0.49658530379140947     
 CDOM          33           6   1.8586450729225740E-010   100.00000000000000       0.34993774911115533     
 CDOM          33           7   1.8586450729225740E-010   100.00000000000000       0.24659696394160643     
 CDOM          33           8   1.8586450729225740E-010   100.00000000000000       0.17377394345044514     
 CDOM          33           9   1.8586450729225740E-010   100.00000000000000       0.12245642825298191     
 CDOM          33          10   1.8586450729225740E-010   100.00000000000000        8.6293586499370495E-002
 CDOM          33          11   1.8586450729225740E-010   100.00000000000000        6.0810062625217952E-002
 CDOM          33          12   1.8586450729225740E-010   100.00000000000000        4.2852126867040187E-002
 CDOM          33          13   1.8586450729225740E-010   100.00000000000000        3.0197383422318501E-002
 abs          33           1   6.3002083148095776E-003   7.6028481049016609E-003   3.8000154082475182E-003   6.3000000000000000E-003   3.7428515478244951E-008   6.7047545682720929E-021   1.7088629409963338E-007
 abs          33           2   5.1001643130586249E-003   5.8026805693192091E-003   2.9000145018800165E-003   5.1000000000000004E-003   2.6375429073371735E-008   7.9673688242218610E-021   1.3793762955101124E-007
 abs          33           3   8.3001280430312629E-003   4.5023734207513839E-003   2.2500128402062648E-003   8.3000000000000001E-003   1.8586450729225742E-008   8.3437560171189319E-021   1.0945658053440570E-007
 abs          33           4   1.1900102449961101E-002   3.6024292659455337E-003   1.8000131423287654E-003   1.1900000000000001E-002   1.3097650459029076E-008   7.5219842782913169E-021   8.9352310640331184E-008
 abs          33           5   2.1500081270058733E-002   2.9023175755572336E-003   1.4500125380837645E-003   2.1499999999999998E-002   9.2297582817766284E-009   5.2519263957151389E-021   7.2040300453767016E-008
 abs          33           6   4.0700064583102644E-002   2.3021947161301032E-003   1.1500118734142639E-003   4.0700000000000000E-002   6.5041007321506473E-009   3.5506270637030914E-021   5.8079001916215267E-008
 abs          33           7   5.5000051884241764E-002   1.9020941947806328E-003   9.5001132959376326E-004   5.5000000000000000E-002   4.5833623202773245E-009   1.9664805708782940E-021   4.7300879445225325E-008
 abs          33           8   8.4900041874715199E-002   1.6020160115088225E-003   8.0001090662226281E-004   8.4900000000000003E-002   3.2298408379649588E-009   1.3242958221927048E-021   3.8644874351943241E-008
 abs          33           9  0.19950003338180353        1.4019378282370122E-003   7.0001048365076228E-004  0.19950000000000001        2.2760303702010151E-009   1.3448796818679749E-021   3.1105773141665292E-008
 abs          33          10  0.28500002667838364        1.2018652294846167E-003   6.0001009089151176E-004  0.28499999999999998        1.6038914937187294E-009   1.4114502707278135E-021   2.5074492173442941E-008
 abs          33          11  0.35120002145789392        9.0176470813514654E-004   4.5000954707101113E-004  0.35120000000000001        1.1302432328247452E-009   1.3682471471318569E-021   2.0327650670675343E-008
 abs          33          12  0.45590001743833686        7.0172003197982642E-004   3.5000930537301087E-004  0.45590000000000003        7.9646894465677308E-010   4.3436367069359456E-021   1.6641867856761681E-008
 abs          33          13  0.64330001401995396        7.0166977130509123E-004   3.5000903346276053E-004  0.64329999999999998        5.6126217913046099E-010   4.1998803616427315E-022   1.3458691790199884E-008
 CDOM          34           1   7.9228977340118048E-011   100.00000000000000        2.0137527074704766     
 CDOM          34           2   7.9228977340118048E-011   100.00000000000000        1.4190675485932573     
 CDOM          34           3   7.9228977340118048E-011   100.00000000000000        1.0000000000000000     
 CDOM          34           4   7.9228977340118048E-011   100.00000000000000       0.70468808971871344     
 CDOM          34           5   7.9228977340118048E-011   100.00000000000000       0.49658530379140947     
 CDOM          34           6   7.9228977340118048E-011   100.00000000000000       0.34993774911115533     
 CDOM          34           7   7.9228977340118048E-011   100.00000000000000       0.24659696394160643     
 CDOM          34           8   7.9228977340118048E-011   100.00000000000000       0.17377394345044514     
 CDOM          34           9   7.9228977340118048E-011   100.00000000000000       0.12245642825298191     
 CDOM          34          10   7.9228977340118048E-011   100.00000000000000        8.6293586499370495E-002
 CDOM          34          11   7.9228977340118048E-011   100.00000000000000        6.0810062625217952E-002
 CDOM          34          12   7.9228977340118048E-011   100.00000000000000        4.2852126867040187E-002
 CDOM          34          13   7.9228977340118048E-011   100.00000000000000        3.0197383422318501E-002
 abs          34           1   6.3000887260113931E-003   7.6012128542438323E-003   3.8000065615414590E-003   6.3000000000000000E-003   1.5954756762877979E-008   1.6738528464032885E-027   7.2771254629962271E-008
 abs          34           2   5.1000699833227961E-003   5.8011415098765482E-003   2.9000061755684319E-003   5.1000000000000004E-003   1.1243127065159207E-008   1.9888685865843574E-027   5.8740195730721177E-008
 abs          34           3   8.3000545345510261E-003   4.5010107118698605E-003   2.2500054679512158E-003   8.3000000000000001E-003   7.9228977340118053E-009   2.0827818021227818E-027   4.6611653292394138E-008
 abs          34           4   1.1900043633500890E-002   3.6010344933256220E-003   1.8000055966088916E-003   1.1900000000000001E-002   5.5831716692175021E-009   1.8778325066134000E-027   3.8050329218280929E-008
 abs          34           5   2.1500034612472508E-002   2.9009869304140990E-003   1.4500053392935402E-003   2.1499999999999998E-002   3.9343945781525221E-009   1.3110503218263034E-027   3.0678077932239002E-008
 abs          34           6   4.0700027505234992E-002   2.3009346112114241E-003   1.1500050562466538E-003   4.0700000000000000E-002   2.7725209994779640E-009   8.8642870891088867E-028   2.4732713991882604E-008
 abs          34           7   5.5000022096655554E-002   1.9008918045910535E-003   9.5000482466283764E-004   5.5000000000000000E-002   1.9537625268271444E-009   4.9080573470317057E-028   2.0142893029927467E-008
 abs          34           8   8.4900017833560576E-002   1.6008585105529876E-003   8.0000464454209168E-004   8.4900000000000003E-002   1.3767931827938274E-009   3.3057682563480703E-028   1.6456767386906500E-008
 abs          34           9  0.19950001421648061        1.4008252165149215E-003   7.0000446442134573E-004  0.19950000000000001        9.7020975792072961E-010   3.3576883624437465E-028   1.3246270859114047E-008
 abs          34          10  0.28500001136156888        1.2007943006224315E-003   6.0000429716636726E-004  0.28499999999999998        6.8369526093561417E-010   3.5237363346399033E-028   1.0677873636880087E-008
 abs          34          11  0.35120000913824179        9.0075149400206103E-004   4.5000406558255116E-004  0.35120000000000001        4.8179190737845523E-010   3.4155509280697885E-028   8.6564498971589102E-009
 abs          34          12  0.45590000742638687        7.0073246883745185E-004   3.5000396265641063E-004  0.45590000000000003        3.3951301885245912E-010   1.0844400986242513E-027   7.0868738169048217E-009
 abs          34          13  0.64330000597058157        7.0071106552726658E-004   3.5000384686450250E-004  0.64329999999999998        2.3925078068977292E-010   1.0481666165260445E-028   5.7313308385035648E-009
 CDOM          35           1   3.9108015697585992E-011   100.00000000000000        2.0137527074704766     
 CDOM          35           2   3.9108015697585992E-011   100.00000000000000        1.4190675485932573     
 CDOM          35           3   3.9108015697585992E-011   100.00000000000000        1.0000000000000000     
 CDOM          35           4   3.9108015697585992E-011   100.00000000000000       0.70468808971871344     
 CDOM          35           5   3.9108015697585992E-011   100.00000000000000       0.49658530379140947     
 CDOM          35           6   3.9108015697585992E-011   100.00000000000000       0.34993774911115533     
 CDOM          35           7   3.9108015697585992E-011   100.00000000000000       0.24659696394160643     
 CDOM          35           8   3.9108015697585992E-011   100.00000000000000       0.17377394345044514     
 CDOM          35           9   3.9108015697585992E-011   100.00000000000000       0.12245642825298191     
 CDOM          35          10   3.9108015697585992E-011   100.00000000000000        8.6293586499370495E-002
 CDOM          35          11   3.9108015697585992E-011   100.00000000000000        6.0810062625217952E-002
 CDOM          35          12   3.9108015697585992E-011   100.00000000000000        4.2852126867040187E-002
 CDOM          35          13   3.9108015697585992E-011   100.00000000000000        3.0197383422318501E-002
 abs          35           1   6.3000438263257057E-003   7.6005991823076009E-003   3.8000032415762843E-003   6.3000000000000000E-003   7.8753872494811687E-009   3.3715484783134495E-034   3.5950938456062314E-008
 abs          35           2   5.1000345689131612E-003   5.8005639362895068E-003   2.9000030508953261E-003   5.1000000000000004E-003   5.5496915966319978E-009   4.0058176855872541E-034   2.9019221564207161E-008
 abs          35           3   8.3000269382000579E-003   4.5004993185896675E-003   2.2500027013135698E-003   8.3000000000000001E-003   3.9108015697585993E-009   4.1949157406350147E-034   2.3027398488196779E-008
 abs          35           4   1.1900021553771605E-002   3.6005110672623656E-003   1.8000027648738893E-003   1.1900000000000001E-002   2.7558952874621332E-009   3.7823590763006785E-034   1.8797876316895332E-008
 abs          35           5   2.1500017097834365E-002   2.9004875699169693E-003   1.4500026377532507E-003   2.1499999999999998E-002   1.9420465855864950E-009   2.6406475343827387E-034   1.5155787780496860E-008
 abs          35           6   4.0700013587156705E-002   2.3004617228370339E-003   1.1500024979205483E-003   4.0700000000000000E-002   1.3685370985416971E-009   1.7854951569870858E-034   1.2218619605981965E-008
 abs          35           7   5.5000010915517573E-002   1.9004405752261772E-003   9.5000238351197362E-004   5.5000000000000000E-002   9.6439179368053923E-010   9.8843966966582668E-035   9.9511257752564649E-009
 abs          35           8   8.4900008809676922E-002   1.6004241270844001E-003   8.0000229452752668E-004   8.4900000000000003E-002   6.7959541082914293E-010   6.6581739513264933E-035   8.1300815070572305E-009
 abs          35           9  0.19950000702291348        1.4004076789426226E-003   7.0000220554307954E-004  0.19950000000000001        4.7890279183879292E-010   6.7634242929113734E-035   6.5440106928191862E-009
 abs          35          10  0.28500000561263111        1.2003924056681150E-003   6.0000212291466443E-004  0.28499999999999998        3.3747709354183758E-010   7.0977007635681193E-035   5.2751540414287524E-009
 abs          35          11  0.35120000451433298        9.0037125805725868E-004   4.5000200850608973E-004  0.35120000000000001        2.3781608837182107E-010   6.8793754914192896E-035   4.2765168620936873E-009
 abs          35          12  0.45590000366869066        7.0036185911910023E-004   3.5000195765783434E-004  0.45590000000000003        1.6758616501911541E-010   2.1843828743609402E-034   3.5011044640217549E-009
 abs          35          13  0.64330000294952605        7.0035128531367198E-004   3.5000190045354697E-004  0.64329999999999998        1.1809597449060550E-010   2.1108347537777886E-035   2.8314301202323589E-009
 ed   5.1497173666954037        6.6271289136674669        8.0762863781717087        8.5107749316427448        8.5193572454982345        8.3551432185702854        8.4518083479669350        8.3214161356290184        7.8922420647409233        7.8283224357499019        7.3984347913000317        6.7462352249357433        3.3248014416959553     
 es   3.8714932408597731        4.4523268924819099        5.0461345036824543        4.9438894602987498        4.6609512991375386        4.3348442998197338        4.2105758004718359        4.0414000471433003        3.7303559044996897        3.6350070297718049        3.4207013838820988        3.0618293139669630        1.5064399298694400     
 PAR   7.1845789762508078E-002  0.58677937950170356        2.6154585509129267        6.8644664282422285        12.668042245577476        17.910759264970345        23.603076483862797        25.161911940435825        14.475911751235698        9.9292988755375706        7.0771279938745604        3.7482659264269538       0.64424650399229422     
 chl2c           1   3.7477407714772232E-002   3.7477407714772232E-002  0.60826437499999997        6.3120185726092700E-005   1.4246015018086433E-016
 chl           1   3.1319169657328655E-005   8.3568132288359368E-004   3.7477407714772232E-002
 chl2c           2   8.4148404568620799E-002   3.2640259920490348E-002  0.48302390000000001        3.5101693020509626E-005   1.7884434726593673E-006
 chl           2   7.1354828487756421E-005   8.4796412782334391E-004   8.4148404568620799E-002
 chl2c           3   3.7922212503796585E-002   3.7922212503796585E-002  0.75128689999999998        6.3120185726092700E-005   1.5361793686208659E-016
 chl           3   3.1690884711848056E-005   8.3568132288366133E-004   3.7922212503796585E-002
 chl2c           4   6.4700428268097326E-002   3.7976509103863923E-002  0.77318742499999993        6.3120185726092700E-005   2.2284265602951858E-006
 chl           4   5.4800636439795170E-005   8.4699031995150522E-004   6.4700428268097326E-002
 chl2c           5   5.9215992985322465E-002   2.5710500362372445E-002  0.48489679999999996        8.3631088688389301E-005   2.8206033657444009E-006
 chl           5   5.0534916801754842E-005   8.5339980390568889E-004   5.9215992985322465E-002
 chl2c           6   3.1261039902252048E-002   3.1261039902252048E-002  0.29222855000000003        3.5101693020509626E-005   1.0231400641837343E-016
 chl           6   2.6233858364543016E-005   8.3918700230612374E-004   3.1261039902252048E-002
 chl2c           7   8.7167711804021747E-002   4.3064391842467263E-002  0.22770740000000000        1.8523233586846157E-005   1.3080387569889959E-006
 chl           7   7.3638475579561059E-005   8.4479073794115035E-004   8.7167711804021747E-002
 chl2c           8   4.7969800906495587E-002   4.7969800906495587E-002  0.49578364999999996        1.8523233586846157E-005   7.3613479966307816E-017
 chl           8   4.0255633423935265E-005   8.3918700230594984E-004   4.7969800906495587E-002
 chl2c           9   2.4803669054600401E-002   2.4803669054600401E-002  0.28700202499999999        8.3631088688389301E-005   1.3654795151562810E-016
 chl           9   2.0814918692495142E-005   8.3918708343814748E-004   2.4803669054600401E-002
 chl2c          10   6.7722046445710574E-002   2.5387016219684602E-002  0.39094662499999999        8.3631088688389301E-005   3.4251604323082360E-006
 chl          10   5.7974712067036985E-005   8.5606851992448951E-004   6.7722046445710574E-002
 chl2c          11   2.1820572217820047E-002   2.1820572217820047E-002  0.49737575000000001        6.3120185726092700E-005   1.4145638820638409E-016
 chl          11   1.8311540588081885E-005   8.3918700230636173E-004   2.1820572217820047E-002
 chl2c          12   4.5290941298723353E-002   4.5290941298723353E-002  0.30768942500000002        1.8523233586846157E-005   7.2987482963650274E-017
 chl          12   3.8007569260090228E-005   8.3918700230594615E-004   4.5290941298723353E-002
 chl2c          13   3.7935816987997487E-002   3.7935816987997487E-002  0.75666275000000005        6.3120185726092700E-005   1.2777410171092206E-016
 chl          13   3.1702253720277090E-005   8.3568132275383354E-004   3.7935816987997487E-002
 chl2c          14   4.6856526101924839E-002   4.6856526101924839E-002  0.39804095000000000        1.8523233586846157E-005   8.1058109635640025E-017
 chl          14   3.9321387677946920E-005   8.3918700230599505E-004   4.6856526101924839E-002
 chl2c          15   8.3743460997305591E-002   2.0954299823745293E-002  0.25607262500000000        6.3120185726092700E-005   3.9272952325510857E-006
 chl          15   7.1758340943936562E-005   8.5688291467014193E-004   8.3743460997305591E-002
 chl2c          16   3.7823443882273475E-002   3.7823443882273475E-002  0.71433214999999994        6.3120185726092700E-005   1.5991358823310568E-016
 chl          16   3.1608345619555666E-005   8.3568132288369939E-004   3.7823443882273475E-002
 chl2c          17   3.7542254757581245E-002   3.7542254757581245E-002  0.62580860000000005        6.3120185726092700E-005   1.5983365019765125E-016
 chl          17   3.1373361119852330E-005   8.3568132288369885E-004   3.7542254757581245E-002
 chl2c          18   2.5694475239060960E-002   2.5694475239060960E-002  0.47925950000000000        8.3631088688389301E-005   1.4766085165509877E-016
 chl          18   2.1562469651703573E-005   8.3918700230639946E-004   2.5694475239060960E-002
 chl2c          19   3.7570220750293731E-002   3.7570220750293731E-002  0.63367130000000005        6.3120185726092700E-005   7.9407510507325316E-007
 chl          19   3.1566747076679432E-005   8.4020659038668650E-004   3.7570220750293731E-002
 chl2c          20   3.7020645196759419E-002   3.7020645196759419E-002  0.50678202500000002        6.3120185726092700E-005   1.4068243694568325E-016
 chl          20   3.0937461747231161E-005   8.3568132275391172E-004   3.7020645196759419E-002
 chl2c          21   3.7838475073783531E-002   3.7838475073783531E-002  0.71973185000000006        6.3120185726092700E-005   2.2421738634926288E-008
 chl          21   3.1624812173537483E-005   8.3578453179918987E-004   3.7838475073783531E-002
 chl2c          22   9.4428036421731879E-002   3.7613353106285476E-002  0.64616892500000001        6.3120185726092700E-005   3.4901985180313254E-006
 chl          22   8.0550907448307218E-005   8.5304016159515371E-004   9.4428036421731879E-002
 chl2c          23   3.2286562315070731E-002   3.2286562315070731E-002  0.41564179999999995        3.5101693020509626E-005   9.6494798733862756E-017
 chl          23   2.7094463443952927E-005   8.3918700230608840E-004   3.2286562315070731E-002
 chl2c          24   3.7348402796863071E-002   3.7348402796863071E-002  0.57597492500000003        6.3120185726092700E-005   1.1423174632641840E-016
 chl          24   3.1211362652022456E-005   8.3568132275375180E-004   3.7348402796863071E-002
 chl2c          25   4.5426679235459781E-002   4.5426679235459781E-002  0.31406487500000002        1.8523233586846157E-005   7.6694268220714456E-017
 chl          25   3.8121478772320281E-005   8.3918700230596859E-004   4.5426679235459781E-002
 chl2c          26   4.7955660680174553E-002   4.7955660680174553E-002  0.49427735000000000        1.8523233586846157E-005   7.0509894953118494E-017
 chl          26   4.0243767129796089E-005   8.3918700230593097E-004   4.7955660680174553E-002
 chl2c          27   4.5333133499525620E-002   4.5333133499525620E-002  0.30964730000000001        1.8523233586846157E-005   8.0443008812204414E-017
 chl          27   3.8042976406604223E-005   8.3918700230599136E-004   4.5333133499525620E-002
 chl2c          28   3.1209236063453518E-002   3.1209236063453518E-002  0.28776342500000002        3.5101693020509626E-005   8.0004406045424999E-017
 chl          28   2.6190385256349512E-005   8.3918700230598865E-004   3.1209236063453518E-002
 chl2c          29   9.3065587506815428E-002   3.7743217595736761E-002  0.68676297499999994        6.3120185726092700E-005   3.3975756163576041E-006
 chl          29   7.9355148214850768E-005   8.5267981797288275E-004   9.3065587506815428E-002
 chl2c          30   2.5380056985171612E-002   2.5380056985171612E-002  0.38930277499999999        8.3631088688389301E-005   1.6187475428899588E-016
 chl          30   2.1298613939753946E-005   8.3918700230648565E-004   2.5380056985171612E-002
 chl2c          31   9.7237492109286700E-002   3.7576959810037038E-002  0.63559385000000002        6.3120185726092700E-005   3.6231128526287950E-006
 chl          31   8.3009333572797914E-005   8.5367620834464193E-004   9.7237492109286700E-002
 chl2c          32   7.4512586155659588E-002   2.0893126428578448E-002  0.24722667500000001        6.3120185726092700E-005   3.3661655543604992E-006
 chl          32   6.3676306429108967E-005   8.5457114984691010E-004   7.4512586155659588E-002
 chl2c          33   3.7458922634011876E-002   3.7458922634011876E-002  0.60343137499999999        6.3120185726092700E-005   1.1072344980615344E-006
 chl          33   3.1523839255752238E-005   8.4155755262243679E-004   3.7458922634011876E-002
 chl2c          34   5.5861328996744168E-002   2.5350269098008315E-002  0.38241020000000003        8.3631088688389301E-005   2.7354595653021935E-006
 chl          34   4.7640175307793799E-005   8.5282924991939360E-004   5.5861328996744168E-002
 chl2c          35   2.5740370148566064E-002   2.5740370148566064E-002  0.49574644999999995        8.3631088688389301E-005   1.1688066227603102E-016
 chl          35   2.1600984063227484E-005   8.3918700230621287E-004   2.5740370148566064E-002
 chl2c          36   3.7770393924465726E-002   3.7770393924465726E-002  0.69587337500000002        6.3120185726092700E-005   1.2172097332730923E-016
 chl          36   3.1564012760627222E-005   8.3568132288346813E-004   3.7770393924465726E-002
 chl2c          37   2.1353674699533250E-002   2.1353674699533250E-002  0.33194060000000003        6.3120185726092700E-005   1.0701541566684637E-016
 chl          37   1.7919726259322052E-005   8.3918700230615313E-004   2.1353674699533250E-002
 chl2c          38   2.1543295686358745E-002   2.1543295686358745E-002  0.38455722500000000        6.3120185726092700E-005   1.6523362952002482E-016
 chl          38   1.8078853726838080E-005   8.3918700230650614E-004   2.1543295686358745E-002
 chl2c          39   2.5670077108751441E-002   2.5670077108751441E-002  0.47091117500000002        8.3631088688389301E-005   1.3300459584879664E-016
 chl          39   2.1541995057864972E-005   8.3918700230631077E-004   2.5670077108751441E-002
 chl2c          40   3.7687445774703773E-002   3.7687445774703773E-002  0.66875547499999999        6.3120185726092700E-005   1.6022223023718039E-016
 chl          40   3.1494694541112205E-005   8.3568132288370123E-004   3.7687445774703773E-002
 chl2c          41   2.5582381488167241E-002   2.5582381488167241E-002  0.44304987499999998        8.3631088688389301E-005   9.6363600511434543E-017
 chl          41   2.1468402032905839E-005   8.3918700230608851E-004   2.5582381488167241E-002
 chl2c          42   3.7949995630725070E-002   3.7949995630725070E-002  0.76234377499999995        6.3120185726092700E-005   1.3515452712808249E-016
 chl          42   3.1714102547188224E-005   8.3568132275387821E-004   3.7949995630725070E-002
 chl2c          43   2.1185090152268007E-002   2.1185090152268007E-002  0.29539925000000000        6.3120185726092700E-005   1.6452566348033963E-016
 chl          43   1.7778252298474784E-005   8.3918700230650191E-004   2.1185090152268007E-002
 chl2c          44   3.7536352708156646E-002   3.7536352708156646E-002  0.62417262500000004        6.3120185726092700E-005   1.1546624100684141E-016
 chl          44   3.1368428882504003E-005   8.3568132275375928E-004   3.7536352708156646E-002
 chl2c          45  0.13174282955485547        4.6544927192009838E-002  0.37662252499999999        1.8523233586846157E-005   1.8765809742843722E-006
 chl          45   1.1165126023738925E-004   8.4749402008934052E-004  0.13174282955485547     
 chl2c          46   9.4401881686929007E-002   3.7083195475449568E-002  0.51876034999999998        6.3120185726092700E-005   3.6421080421318364E-006
 chl          46   8.0574093269195445E-005   8.5352211025208654E-004   9.4401881686929007E-002
 chl2c          47   3.7519784612651236E-002   3.7519784612651236E-002  0.61962282499999999        6.3120185726092700E-005   1.4745078042857624E-016
 chl          47   3.1354583234543789E-005   8.3568132275395281E-004   3.7519784612651236E-002
 chl2c          48   3.7823212136301673E-002   3.7823212136301673E-002  0.71424949999999998        6.3120185726092700E-005   1.4180725123896155E-016
 chl          48   3.1608151948866649E-005   8.3568132275391855E-004   3.7823212136301673E-002
 chl2c          49   3.7152990741888416E-002   3.7152990741888416E-002  0.53276120000000005        6.3120185726092700E-005   1.3197116064282714E-016
 chl          49   3.1048060447443192E-005   8.3568132275385902E-004   3.7152990741888416E-002
 chl2c          50   3.9292941337856734E-002   2.1533072915600981E-002  0.38132569999999999        6.3120185726092700E-005   1.3825510782032510E-006
 chl          50   3.3246824049904919E-005   8.4612713932599661E-004   3.9292941337856734E-002
 chl2c          51   2.0700971146093840E-002   2.0700971146093840E-002  0.22275920000000002        6.3120185726092700E-005   1.7561497034522079E-016
 chl          51   1.7371985920925270E-005   8.3918700230656903E-004   2.0700971146093840E-002
 chl2c          52   3.7581825176985564E-002   3.7581825176985564E-002  0.63698869999999996        6.3120185726092700E-005   1.5692232048291301E-016
 chl          52   3.1406429380286539E-005   8.3568132288368128E-004   3.7581825176985564E-002
 chl2c          53   3.7925801262726190E-002   3.7925801262726190E-002  0.75269794999999995        6.3120185726092700E-005   1.4053146045398543E-016
 chl          53   3.1693883770654846E-005   8.3568132288358197E-004   3.7925801262726190E-002
 chl2c          54   3.7082433371327092E-002   3.7082433371327092E-002  0.51861124999999997        6.3120185726092700E-005   1.1528077262425492E-016
 chl          54   3.0989096970678724E-005   8.3568132275375808E-004   3.7082433371327092E-002
 chl2c          55   9.4617819324499711E-002   3.7357235588660491E-002  0.57808280000000001        6.3120185726092700E-005   3.5705591573251596E-006
 chl          55   8.0737903204565755E-005   8.5330547439133400E-004   9.4617819324499711E-002
 chl2c          56   3.7507394187257688E-002   3.7507394187257688E-002  0.61626080000000005        6.3120185726092700E-005   1.5733695427807689E-016
 chl          56   3.1344228792327298E-005   8.3568132288368378E-004   3.7507394187257688E-002
 chl2c          57  0.10198189149351469        3.7727617852646313E-002  0.68163462500000005        6.3120185726092700E-005   3.7848187807982753E-006
 chl          57   8.7145532163397164E-005   8.5451966900357984E-004  0.10198189149351469     
 chl2c          58   3.7765358178394853E-002   3.7765358178394853E-002  0.69416802499999997        6.3120185726092700E-005   5.1341417158425832E-007
 chl          58   3.1674095063052023E-005   8.3870765672156196E-004   3.7765358178394853E-002
 chl2c          59   3.7173699120809672E-002   3.7173699120809672E-002  0.53705127500000005        6.3120185726092700E-005   1.6004668100647695E-016
 chl          59   3.1065366052938518E-005   8.3568132275402913E-004   3.7173699120809672E-002
 chl2c          60   3.7607757740906807E-002   3.7607757740906807E-002  0.64452155000000000        6.3120185726092700E-005   1.2158942710044406E-007
 chl          60   3.1454562100225585E-005   8.3638493730275626E-004   3.7607757740906807E-002
 chl2c          61   3.7805373434125003E-002   3.7805373434125003E-002  0.70794139999999994        6.3120185726092700E-005   1.3753809617622273E-016
 chl          61   3.1593244478634454E-005   8.3568132275389263E-004   3.7805373434125003E-002
 chl2c          62   3.7956103087269030E-002   3.7956103087269030E-002  0.76481592499999995        6.3120185726092700E-005   1.1225200358053619E-016
 chl          62   3.1719206434546289E-005   8.3568132275373976E-004   3.7956103087269030E-002
 chl2c          63   4.6746769589007447E-002   3.7855601011927406E-002  0.72597904999999996        6.3120185726092700E-005   1.5768691172232076E-006
 chl          63   3.9441838840118580E-005   8.4373399888135517E-004   4.6746769589007447E-002
 chl2c          64   2.5708982294816416E-002   2.5708982294816416E-002  0.48435739999999999        8.3631088688389301E-005   9.3756834467840347E-017
 chl          64   2.1574643784326884E-005   8.3918700230607257E-004   2.5708982294816416E-002
 chl2c          65   3.7953597170552002E-002   3.7953597170552002E-002  0.76379975000000000        6.3120185726092700E-005   1.2402740888361858E-016
 chl          65   3.1717112291673676E-005   8.3568132288348201E-004   3.7953597170552002E-002
 chl2c          66   3.1840477731474713E-002   3.1840477731474713E-002  0.35213202499999996        3.5101693020509626E-005   7.6302104503718624E-017
 chl          66   2.6720115059466137E-005   8.3918700230596621E-004   3.1840477731474713E-002
 chl2c          67   3.7937587124568600E-002   3.7937587124568600E-002  0.75736760000000003        6.3120185726092700E-005   1.3122080574071847E-016
 chl          67   3.1703732990349086E-005   8.3568132275385447E-004   3.7937587124568600E-002
 chl2c          68   3.7855407263856986E-002   3.7855407263856986E-002  0.72590779999999999        6.3120185726092700E-005   2.3418045860787350E-007
 chl          68   3.1686900800306812E-005   8.3705084928673728E-004   3.7855407263856986E-002
 chl2c          69   7.5001848398351056E-002   2.1732330561541505E-002  0.45524217500000003        6.3120185726092700E-005   2.8339654694969367E-006
 chl          69   6.3991272108884624E-005   8.5319593417235693E-004   7.5001848398351056E-002
 chl2c          70   3.2658010878182209E-002   3.2658010878182209E-002  0.48694062500000002        3.5101693020509626E-005   9.6132783703321819E-017
 chl          70   2.7406178250141283E-005   8.3918700230608623E-004   3.2658010878182209E-002
 chl2c          71   4.3481058864416305E-002   4.3481058864416305E-002  0.23986107500000001        1.8523233586846157E-005   8.3955581459589922E-017
 chl          71   3.6488739445520792E-005   8.3918700230601250E-004   4.3481058864416305E-002
 chl2c          72   3.7549776402781669E-002   3.7549776402781669E-002  0.62790522500000001        6.3120185726092700E-005   1.5783327555879504E-016
 chl          72   3.1379646818263229E-005   8.3568132288368670E-004   3.7549776402781669E-002
 chl2c          73   3.1852614277819484E-002   3.1852614277819484E-002  0.35362212500000001        3.5101693020509626E-005   9.2553257637277329E-017
 chl          73   2.6730299891414683E-005   8.3918700230606455E-004   3.1852614277819484E-002
 chl2c          74   3.7616827685877569E-002   3.7616827685877569E-002  0.64719590000000005        6.3120185726092700E-005   1.1488866918262870E-007
 chl          74   3.1460412884942395E-005   8.3633880952575736E-004   3.7616827685877569E-002
 chl2c          75   3.7826830779512356E-002   3.7826830779512356E-002  0.71554212500000003        6.3120185726092700E-005   1.2444867582154940E-016
 chl          75   3.1611175986312599E-005   8.3568132288348461E-004   3.7826830779512356E-002
 chl2c          76   9.0059757592781620E-002   3.7257729557919804E-002  0.55513977500000000        6.3120185726092700E-005   3.3926863470005212E-006
 chl          76   7.6771252112363213E-005   8.5244790974783294E-004   9.0059757592781620E-002
 chl2c          77   3.7138172437479272E-002   3.7138172437479272E-002  0.52973029999999999        6.3120185726092700E-005   1.0936154413058833E-016
 chl          77   3.1035677067208509E-005   8.3568132275372230E-004   3.7138172437479272E-002
 chl2c          78  0.16689811485818032        4.7515248899399322E-002  0.45117492500000000        1.8523233586846157E-005   2.4532497330122739E-006
 chl          78   1.4184074960284983E-004   8.4986430028510102E-004  0.16689811485818032     
 prod   4.0185376820758631E-007   125.35719113433288        10.000000000000000     
 dcdom   4.7711891503255811E-013  -4.2160354064402662E-009
 chl2c           1   3.7477407714772232E-002   3.7477407714772232E-002  0.60826437499999997        3.2664072591563855E-006   1.4966991520767748E-016
 chl           1   3.1867312712190600E-005   8.5030728258266540E-004   3.7477407714772232E-002
 chl2c           2  0.38499559936181277        3.2640259920490348E-002  0.48302390000000001        1.8250545623811246E-006   1.7310864965380092E-006
 chl           2   3.2875452840549357E-004   8.5391762646236185E-004  0.38499559936181277     
 chl2c           3   3.7922212503796585E-002   3.7922212503796585E-002  0.75128689999999998        3.2664072591563855E-006   1.6129276103616865E-016
 chl           3   3.2245533463628368E-005   8.5030728258273707E-004   3.7922212503796585E-002
 chl2c           4  0.51165135759589653        3.7976509103863923E-002  0.77318742499999993        3.2664072591563855E-006   2.4704021701593393E-006
 chl           4   4.3887890580916966E-004   8.5776945432400721E-004  0.51165135759589653     
 chl2c           5  0.31144158101980041        2.5710500362372445E-002  0.48489679999999996        6.7361038103815915E-006   2.9323602091936119E-006
 chl           5   2.6770722122648765E-004   8.5957443559685676E-004  0.31144158101980041     
 chl2c           6   3.1261039902252048E-002   3.1261039902252048E-002  0.29222855000000003        1.8250545623811246E-006   1.0149162745692769E-016
 chl           6   2.6583123516201112E-005   8.5035954015995677E-004   3.1261039902252048E-002
 chl2c           7  0.21202025254076662        4.3064391842467263E-002  0.22770740000000000        8.6255952961031313E-007   1.3273015299422254E-006
 chl           7   1.8051571593885444E-004   8.5140789040492925E-004  0.21202025254076662     
 chl2c           8   4.7969800906495587E-002   4.7969800906495587E-002  0.49578364999999996        8.6255952961031313E-007   7.1803840801899607E-017
 chl           8   4.0791577840403750E-005   8.5035954015977929E-004   4.7969800906495587E-002
 chl2c           9   2.4803669054600401E-002   2.4803669054600401E-002  0.28700202499999999        6.7361038103815915E-006   2.4215032856345954E-008
 chl           9   2.1095760975536952E-005   8.5050969391257329E-004   2.4803669054600401E-002
 chl2c          10  0.28525085315305254        2.5387016219684602E-002  0.39094662499999999        6.7361038103815915E-006   3.5535757827332508E-006
 chl          10   2.4516674348398803E-004   8.5947768700429718E-004  0.28525085315305254     
 chl2c          11   2.1820572217820047E-002   2.1820572217820047E-002  0.49737575000000001        3.2664072591563855E-006   1.4777772092692611E-016
 chl          11   1.8555331757178791E-005   8.5035954016024126E-004   2.1820572217820047E-002
 chl2c          12   4.5290941298723353E-002   4.5290941298723353E-002  0.30768942500000002        8.6255952961031313E-007   7.1190938490616059E-017
 chl          12   3.8513584016185769E-005   8.5035954015977538E-004   4.5290941298723353E-002
 chl2c          13   3.7935816987997487E-002   3.7935816987997487E-002  0.75666275000000005        3.2664072591563855E-006   1.3435060807906711E-016
 chl          13   3.2257101450608717E-005   8.5030728245063343E-004   3.7935816987997487E-002
 chl2c          14   4.6856526101924839E-002   4.6856526101924839E-002  0.39804095000000000        8.6255952961031313E-007   8.0291739800547036E-017
 chl          14   3.9844893989519714E-005   8.5035954015982656E-004   4.6856526101924839E-002
 chl2c          15  0.23221558205076048        2.0954299823745293E-002  0.25607262500000000        3.2664072591563855E-006   4.0707856575628271E-006
 chl          15   1.9844994311235482E-004   8.5459356930223248E-004  0.23221558205076048     
 chl2c          16   3.7823443882273475E-002   3.7823443882273475E-002  0.71433214999999994        3.2664072591563855E-006   1.6784476291777473E-016
 chl          16   3.2161549785458132E-005   8.5030728258277740E-004   3.7823443882273475E-002
 chl2c          17   3.7542254757581245E-002   3.7542254757581245E-002  0.62580860000000005        3.2664072591563855E-006   1.6776159712381365E-016
 chl          17   3.1922452624949237E-005   8.5030728258277686E-004   3.7542254757581245E-002
 chl2c          18   2.5694475239060960E-002   2.5694475239060960E-002  0.47925950000000000        6.7361038103815915E-006   1.5417260921475836E-016
 chl          18   2.1849542148947603E-005   8.5035954016028095E-004   2.5694475239060960E-002
 chl2c          19  0.30145578992656002        3.7570220750293731E-002  0.63367130000000005        3.2664072591563855E-006   9.3909191004302771E-007
 chl          19   2.5746072545459661E-004   8.5405798812926642E-004  0.30145578992656002     
 chl2c          20   3.7020645196759419E-002   3.7020645196759419E-002  0.50678202500000002        3.2664072591563855E-006   1.4781683121540481E-016
 chl          20   3.1478924211828669E-005   8.5030728245071648E-004   3.7020645196759419E-002
 chl2c          21   5.3753020195893141E-002   3.7838475073783531E-002  0.71973185000000006        3.2664072591563855E-006   9.4875374886799372E-008
 chl          21   4.5733066064149869E-005   8.5079993454291491E-004   5.3753020195893141E-002
 chl2c          22  0.50262324011534820        3.7613353106285476E-002  0.64616892500000001        3.2664072591563855E-006   3.6952074822298009E-006
 chl          22   4.3147511104354124E-004   8.5844640002026367E-004  0.50262324011534820     
 chl2c          23   3.2286562315070731E-002   3.2286562315070731E-002  0.41564179999999995        1.8250545623811246E-006   9.4233667275439463E-017
 chl          23   2.7455186283588107E-005   8.5035954015991871E-004   3.2286562315070731E-002
 chl2c          24   3.7348402796863071E-002   3.7348402796863071E-002  0.57597492500000003        3.2664072591563855E-006   1.2020273199437537E-016
 chl          24   3.1757618886069021E-005   8.5030728245054637E-004   3.7348402796863071E-002
 chl2c          25   4.5426679235459781E-002   4.5426679235459781E-002  0.31406487500000002        8.6255952961031313E-007   7.4820760380502682E-017
 chl          25   3.8629010065652222E-005   8.5035954015979804E-004   4.5426679235459781E-002
 chl2c          26   4.7955660680174553E-002   4.7955660680174553E-002  0.49427735000000000        8.6255952961031313E-007   6.8765564508523291E-017
 chl          26   4.0779553564050729E-005   8.5035954015976031E-004   4.7955660680174553E-002
 chl2c          27   4.5333133499525620E-002   4.5333133499525620E-002  0.30964730000000001        8.6255952961031313E-007   7.9679180683346773E-017
 chl          27   3.8549462556660468E-005   8.5035954015982287E-004   4.5333133499525620E-002
 chl2c          28   3.1209236063453518E-002   3.1209236063453518E-002  0.28776342500000002        1.8250545623811246E-006   7.9242421691869283E-017
 chl          28   2.6539071627657610E-005   8.5035954015982016E-004   3.1209236063453518E-002
 chl2c          29  0.52167096569176907        3.7743217595736761E-002  0.68676297499999994        3.2664072591563855E-006   3.5441967463871023E-006
 chl          29   4.4791469711428540E-004   8.5861534678343049E-004  0.52167096569176907     
 chl2c          30   2.5380056985171612E-002   2.5380056985171612E-002  0.38930277499999999        6.7361038103815915E-006   1.6879795065428622E-016
 chl          30   2.1582173587154549E-005   8.5035954016037115E-004   2.5380056985171612E-002
 chl2c          31  0.49832307280799126        3.7576959810037038E-002  0.63559385000000002        3.2664072591563855E-006   3.7683646925768108E-006
 chl          31   4.2777205541328018E-004   8.5842313702802378E-004  0.49832307280799126     
 chl2c          32  0.22235136987281523        2.0893126428578448E-002  0.24722667500000001        3.2664072591563855E-006   3.6091676598522310E-006
 chl          32   1.8997350601411149E-004   8.5438423933603897E-004  0.22235136987281523     
 chl2c          33  0.34026967364391092        3.7458922634011876E-002  0.60343137499999999        3.2664072591563855E-006   1.2742914898828230E-006
 chl          33   2.9088438782435975E-004   8.5486427488324333E-004  0.34026967364391092     
 chl2c          34  0.26294938434107040        2.5350269098008315E-002  0.38241020000000003        6.7361038103815915E-006   2.8350121603503985E-006
 chl          34   2.2572963273670142E-004   8.5845279045760605E-004  0.26294938434107040     
 chl2c          35   2.5740370148566064E-002   2.5740370148566064E-002  0.49574644999999995        6.7361038103815915E-006   1.2238112197303564E-016
 chl          35   2.1888569323085011E-005   8.5035954016008481E-004   2.5740370148566064E-002
 chl2c          36   3.7770393924465726E-002   3.7770393924465726E-002  0.69587337500000002        3.2664072591563855E-006   1.2802940219039176E-016
 chl          36   3.2116441019984226E-005   8.5030728258253204E-004   3.7770393924465726E-002
 chl2c          37   2.1353674699533250E-002   2.1353674699533250E-002  0.33194060000000003        3.2664072591563855E-006   1.1215565064089653E-016
 chl          37   1.8158300998221788E-005   8.5035954016002182E-004   2.1353674699533250E-002
 chl2c          38   2.1543295686358745E-002   2.1543295686358745E-002  0.38455722500000000        3.2664072591563855E-006   1.7224908710737373E-016
 chl          38   1.8319547013391386E-005   8.5035954016039240E-004   2.1543295686358745E-002
 chl2c          39   2.5670077108751441E-002   2.5670077108751441E-002  0.47091117500000002        6.7361038103815915E-006   1.3905573702317006E-016
 chl          39   2.1828794966074429E-005   8.5035954016018738E-004   2.5670077108751441E-002
 chl2c          40   3.7687445774703773E-002   3.7687445774703773E-002  0.66875547499999999        3.2664072591563855E-006   1.6816586079467206E-016
 chl          40   3.2045909604174218E-005   8.5030728258277935E-004   3.7687445774703773E-002
 chl2c          41   2.5582381488167241E-002   2.5582381488167241E-002  0.44304987499999998        6.7361038103815915E-006   1.0109457153700341E-016
 chl          41   2.1754222158474406E-005   8.5035954015995363E-004   2.5582381488167241E-002
 chl2c          42   3.7949995630725070E-002   3.7949995630725070E-002  0.76234377499999995        3.2664072591563855E-006   1.4205229765628453E-016
 chl          42   3.2269157653777056E-005   8.5030728245068102E-004   3.7949995630725070E-002
 chl2c          43   2.1185090152268007E-002   2.1185090152268007E-002  0.29539925000000000        3.2664072591563855E-006   1.7152183081767231E-016
 chl          43   1.8014943520138982E-005   8.5035954016038785E-004   2.1185090152268007E-002
 chl2c          44   3.7536352708156646E-002   3.7536352708156646E-002  0.62417262500000004        3.2664072591563855E-006   1.2149329014955575E-016
 chl          44   3.1917434064378184E-005   8.5030728245055428E-004   3.7536352708156646E-002
 chl2c          45  0.34462071377104919        4.6544927192009838E-002  0.37662252499999999        8.6255952961031313E-007   1.7491706888652559E-006
 chl          45   2.9362990940199382E-004   8.5203790041787388E-004  0.34462071377104919     
 chl2c          46  0.42410547568191459        3.7083195475449568E-002  0.51876034999999998        3.2664072591563855E-006   3.7961031739526312E-006
 chl          46   3.6364116420441167E-004   8.5743095775813079E-004  0.42410547568191459     
 chl2c          47   3.7519784612651236E-002   3.7519784612651236E-002  0.61962282499999999        3.2664072591563855E-006   1.5487025899134610E-016
 chl          47   3.1903346092121314E-005   8.5030728245075995E-004   3.7519784612651236E-002
 chl2c          48   3.7823212136301673E-002   3.7823212136301673E-002  0.71424949999999998        3.2664072591563855E-006   1.4898937581456746E-016
 chl          48   3.2161352725175910E-005   8.5030728245072374E-004   3.7823212136301673E-002
 chl2c          49   3.7152990741888416E-002   3.7152990741888416E-002  0.53276120000000005        3.2664072591563855E-006   1.3873111322409723E-016
 chl          49   3.1591458592649691E-005   8.5030728245066064E-004   3.7152990741888416E-002
 chl2c          50  0.27453339619623546        2.1533072915600981E-002  0.38132569999999999        3.2664072591563855E-006   1.6010011346682286E-006
 chl          50   2.3460772935035522E-004   8.5456899816537609E-004  0.27453339619623546     
 chl2c          51   2.0700971146093840E-002   2.0700971146093840E-002  0.22275920000000002        3.2664072591563855E-006   1.8290380809522876E-016
 chl          51   1.7603268304667269E-005   8.5035954016045800E-004   2.0700971146093840E-002
 chl2c          52   3.7581825176985564E-002   3.7581825176985564E-002  0.63698869999999996        3.2664072591563855E-006   1.6473223660405461E-016
 chl          52   3.1956099640742878E-005   8.5030728258275821E-004   3.7581825176985564E-002
 chl2c          53   3.7925801262726190E-002   3.7925801262726190E-002  0.75269794999999995        3.2664072591563855E-006   1.4765943746412009E-016
 chl          53   3.2248585011478456E-005   8.5030728258265293E-004   3.7925801262726190E-002
 chl2c          54   3.7082433371327092E-002   3.7082433371327092E-002  0.51861124999999997        3.2664072591563855E-006   1.2129941001328923E-016
 chl          54   3.1531463146626845E-005   8.5030728245055320E-004   3.7082433371327092E-002
 chl2c          55  0.46221032523581407        3.7357235588660491E-002  0.57808280000000001        3.2664072591563855E-006   3.7660817631891804E-006
 chl          55   3.9654996896166828E-004   8.5794268823257747E-004  0.46221032523581407     
 chl2c          56   3.7507394187257688E-002   3.7507394187257688E-002  0.61626080000000005        3.2664072591563855E-006   1.6516373711625067E-016
 chl          56   3.1892810428127526E-005   8.5030728258276081E-004   3.7507394187257688E-002
 chl2c          57  0.53071009307702699        3.7727617852646313E-002  0.68163462500000005        3.2664072591563855E-006   3.9146189050782168E-006
 chl          57   4.5583155453566741E-004   8.5890877238226603E-004  0.53071009307702699     
 chl2c          58  0.25474495789219814        3.7765358178394853E-002  0.69416802499999997        3.2664072591563855E-006   6.5724560005681554E-007
 chl          58   2.1735126073001130E-004   8.5321123734268000E-004  0.25474495789219814     
 chl2c          59   3.7173699120809672E-002   3.7173699120809672E-002  0.53705127500000005        3.2664072591563855E-006   1.6798322819597648E-016
 chl          59   3.1609067078060881E-005   8.5030728245084073E-004   3.7173699120809672E-002
 chl2c          60  0.10216306348465454        3.7607757740906807E-002  0.64452155000000000        3.2664072591563855E-006   1.9828289285417874E-007
 chl          60   8.6971558319573643E-005   8.5130139360628369E-004  0.10216306348465454     
 chl2c          61   3.7805373434125003E-002   3.7805373434125003E-002  0.70794139999999994        3.2664072591563855E-006   1.4453831499504897E-016
 chl          61   3.2146184346804579E-005   8.5030728245069631E-004   3.7805373434125003E-002
 chl2c          62   3.7956103087269030E-002   3.7956103087269030E-002  0.76481592499999995        3.2664072591563855E-006   1.1813271669453294E-016
 chl          62   3.2274350868548039E-005   8.5030728245053357E-004   3.7956103087269030E-002
 chl2c          63  0.43303530492528330        3.7855601011927406E-002  0.72597904999999996        3.2664072591563855E-006   1.7526835097372604E-006
 chl          63   3.7079605838344484E-004   8.5627211953866590E-004  0.43303530492528330     
 chl2c          64   2.5708982294816416E-002   2.5708982294816416E-002  0.48435739999999999        6.7361038103815915E-006   9.8384389074076109E-017
 chl          64   2.1861878362200045E-005   8.5035954015993682E-004   2.5708982294816416E-002
 chl2c          65   3.7953597170552002E-002   3.7953597170552002E-002  0.76379975000000000        3.2664072591563855E-006   1.3043847341192139E-016
 chl          65   3.2272220074324709E-005   8.5030728258254679E-004   3.7953597170552002E-002
 chl2c          66   3.1840477731474713E-002   3.1840477731474713E-002  0.35213202499999996        1.8250545623811246E-006   7.4436673557570425E-017
 chl          66   2.7075854002205051E-005   8.5035954015979566E-004   3.1840477731474713E-002
 chl2c          67   3.7937587124568600E-002   3.7937587124568600E-002  0.75736760000000003        3.2664072591563855E-006   1.3794810726532078E-016
 chl          67   3.2258606610626912E-005   8.5030728245065565E-004   3.7937587124568600E-002
 chl2c          68  0.16537742696406157        3.7855407263856986E-002  0.72590779999999999        3.2664072591563855E-006   3.4978314612741814E-007
 chl          68   1.4090176965085582E-004   8.5200122070756010E-004  0.16537742696406157     
 chl2c          69  0.36354356723906250        2.1732330561541505E-002  0.45524217500000003        3.2664072591563855E-006   2.9476543014262108E-006
 chl          69   3.1132013665012591E-004   8.5634890754484173E-004  0.36354356723906250     
 chl2c          70   3.2658010878182209E-002   3.2658010878182209E-002  0.48694062500000002        1.8250545623811246E-006   9.5320278123244440E-017
 chl          70   2.7771051112908650E-005   8.5035954015991882E-004   3.2658010878182209E-002
 chl2c          71   4.3481058864416305E-002   4.3481058864416305E-002  0.23986107500000001        8.6255952961031313E-007   8.1935325133046282E-017
 chl          71   3.6974533221608078E-005   8.5035954015984217E-004   4.3481058864416305E-002
 chl2c          72   3.7549776402781669E-002   3.7549776402781669E-002  0.62790522500000001        3.2664072591563855E-006   1.6568022327370555E-016
 chl          72   3.1928848334639681E-005   8.5030728258276406E-004   3.7549776402781669E-002
 chl2c          73   3.1852614277819484E-002   3.1852614277819484E-002  0.35362212500000001        1.8250545623811246E-006   9.0366129479345648E-017
 chl          73   2.7086174430177070E-005   8.5035954015989464E-004   3.1852614277819484E-002
 chl2c          74  0.10437690702414207        3.7616827685877569E-002  0.64719590000000005        3.2664072591563855E-006   2.0324762624680953E-007
 chl          74   8.8858673834801618E-005   8.5132503317279632E-004  0.10437690702414207     
 chl2c          75   3.7826830779512356E-002   3.7826830779512356E-002  0.71554212500000003        3.2664072591563855E-006   1.3087842142682500E-016
 chl          75   3.2164429688837096E-005   8.5030728258254961E-004   3.7826830779512356E-002
 chl2c          76  0.44214232135403964        3.7257729557919804E-002  0.55513977500000000        3.2664072591563855E-006   3.5476119700709061E-006
 chl          76   3.7917661203717133E-004   8.5758949940815694E-004  0.44214232135403964     
 chl2c          77   3.7138172437479272E-002   3.7138172437479272E-002  0.52973029999999999        3.2664072591563855E-006   1.1510965017308368E-016
 chl          77   3.1578858480491618E-005   8.5030728245051503E-004   3.7138172437479272E-002
 chl2c          78  0.41739388467723920        4.7515248899399322E-002  0.45117492500000000        8.6255952961031313E-007   2.4042360156732515E-006
 chl          78   3.5579022108578692E-004   8.5240880172672161E-004  0.41739388467723920     
 prod   3.9049519792570680E-007   8.4145584457894902        10.000000000000000     
 dcdom   6.1091844240798296E-013  -1.9505975676461873E-009
 chl2c           1   3.7477407714772232E-002   3.7477407714772232E-002  0.60826437499999997        2.7659222410675287E-007   1.4950877622656071E-016
 chl           1   3.2119882675839452E-005   8.5704654175371273E-004   3.7477407714772232E-002
 chl2c           2  0.46996947707274550        3.2640259920490348E-002  0.48302390000000001        1.7619454781930773E-007   1.5319446147497850E-006
 chl           2   4.0303378518357497E-004   8.5757438481731500E-004  0.46996947707274550     
 chl2c           3   3.7922212503796585E-002   3.7922212503796585E-002  0.75128689999999998        2.7659222410675287E-007   1.6105916715458106E-016
 chl           3   3.2501101082031017E-005   8.5704654175378526E-004   3.7922212503796585E-002
 chl2c           4  0.74210327457079250        3.7976509103863923E-002  0.77318742499999993        2.7659222410675287E-007   2.5528194429694546E-006
 chl           4   6.3692429862802528E-004   8.5826908525151141E-004  0.74210327457079250     
 chl2c           5  0.45903040129425660        2.5710500362372445E-002  0.48489679999999996        6.7605533644986529E-007   2.9087543760689549E-006
 chl           5   3.9425704369255252E-004   8.5889092003694589E-004  0.45903040129425660     
 chl2c           6   3.1261039902252048E-002   3.1261039902252048E-002  0.29222855000000003        1.7619454781930773E-007   9.7826997047515353E-017
 chl           6   2.6793045189760153E-005   8.5707466141681291E-004   3.1261039902252048E-002
 chl2c           7  0.22596150257368169        4.3064391842467263E-002  0.22770740000000000        8.2033548512883327E-008   1.2087997909169156E-006
 chl           7   1.9369157500456223E-004   8.5718838296980761E-004  0.22596150257368169     
 chl2c           8   4.7969800906495587E-002   4.7969800906495587E-002  0.49578364999999996        8.2033548512883327E-008   6.3913473762569219E-017
 chl           8   4.1113700870157718E-005   8.5707466141662708E-004   4.7969800906495587E-002
 chl2c           9  0.14009837534841985        2.4803669054600401E-002  0.28700202499999999        6.7605533644986529E-007   9.2520447381137805E-008
 chl           9   1.2012645685436084E-004   8.5744361100270053E-004  0.14009837534841985     
 chl2c          10  0.37680337808056580        2.5387016219684602E-002  0.39094662499999999        6.7605533644986529E-007   3.5207515724601891E-006
 chl          10   3.2351982314945499E-004   8.5859055934546838E-004  0.37680337808056580     
 chl2c          11   2.1820572217820047E-002   2.1820572217820047E-002  0.49737575000000001        2.7659222410675287E-007   1.4712780351180588E-016
 chl          11   1.8701859545515797E-005   8.5707466141711388E-004   2.1820572217820047E-002
 chl2c          12   4.5290941298723353E-002   4.5290941298723353E-002  0.30768942500000002        8.2033548512883327E-008   6.3359019624680380E-017
 chl          12   3.8817718178843480E-005   8.5707466141662328E-004   4.5290941298723353E-002
 chl2c          13   3.7935816987997487E-002   3.7935816987997487E-002  0.75666275000000005        2.7659222410675287E-007   1.3427259296399535E-016
 chl          13   3.2512760753106557E-005   8.5704654162037071E-004   3.7935816987997487E-002
 chl2c          14   4.6856526101924839E-002   4.6856526101924839E-002  0.39804095000000000        8.2033548512883327E-008   7.6946375212887400E-017
 chl          14   4.0159541243969158E-005   8.5707466141668204E-004   4.6856526101924839E-002
 chl2c          15  0.25384238089215849        2.0954299823745293E-002  0.25607262500000000        2.7659222410675287E-007   4.0307406589082481E-006
 chl          15   2.1767085623087450E-004   8.5750399703093320E-004  0.25384238089215849     
 chl2c          16   3.7823443882273475E-002   3.7823443882273475E-002  0.71433214999999994        2.7659222410675287E-007   1.6756681630585691E-016
 chl          16   3.2416451776522404E-005   8.5704654175382635E-004   3.7823443882273475E-002
 chl2c          17   3.7542254757581245E-002   3.7542254757581245E-002  0.62580860000000005        2.7659222410675287E-007   1.6748422918938329E-016
 chl          17   3.2175459609626124E-005   8.5704654175382592E-004   3.7542254757581245E-002
 chl2c          18   2.5694475239060960E-002   2.5694475239060960E-002  0.47925950000000000        6.7605533644986529E-007   1.5344521453390009E-016
 chl          18   2.2022083665809612E-005   8.5707466141715367E-004   2.5694475239060960E-002
 chl2c          19  0.58310763130893517        3.7570220750293731E-002  0.63367130000000005        2.7659222410675287E-007   1.0106113157885106E-006
 chl          19   5.0028824295942308E-004   8.5796895135190976E-004  0.58310763130893517     
 chl2c          20   3.7020645196759419E-002   3.7020645196759419E-002  0.50678202500000002        2.7659222410675287E-007   1.4766650053449325E-016
 chl          20   3.1728415934440575E-005   8.5704654162045506E-004   3.7020645196759419E-002
 chl2c          21  0.42986217212545025        3.7838475073783531E-002  0.71973185000000006        2.7659222410675287E-007   1.4760706118009979E-007
 chl          21   3.6862998682083651E-004   8.5755391082250460E-004  0.42986217212545025     
 chl2c          22  0.63095832926830420        3.7613353106285476E-002  0.64616892500000001        2.7659222410675287E-007   3.7068967825889848E-006
 chl          22   5.4142856173583877E-004   8.5810510238245154E-004  0.63095832926830420     
 chl2c          23   3.2286562315070731E-002   3.2286562315070731E-002  0.41564179999999995        1.7619454781930773E-007   8.4312065698467682E-017
 chl          23   2.7671994464500514E-005   8.5707466141676444E-004   3.2286562315070731E-002
 chl2c          24   3.7348402796863071E-002   3.7348402796863071E-002  0.57597492500000003        2.7659222410675287E-007   1.2018872410427817E-016
 chl          24   3.2009319452092774E-005   8.5704654162028235E-004   3.7348402796863071E-002
 chl2c          25   4.5426679235459781E-002   4.5426679235459781E-002  0.31406487500000002        8.2033548512883327E-008   6.6644963608911737E-017
 chl          25   3.8934055725014254E-005   8.5707466141664551E-004   4.5426679235459781E-002
 chl2c          26   4.7955660680174553E-002   4.7955660680174553E-002  0.49427735000000000        8.2033548512883327E-008   6.1166463613414761E-017
 chl          26   4.1101581640470364E-005   8.5707466141660843E-004   4.7955660680174553E-002
 chl2c          27   4.5333133499525620E-002   4.5333133499525620E-002  0.30964730000000001        8.2033548512883327E-008   7.6346633715909931E-017
 chl          27   3.8853880045063003E-005   8.5707466141667836E-004   4.5333133499525620E-002
 chl2c          28   3.1209236063453518E-002   3.1209236063453518E-002  0.28776342500000002        1.7619454781930773E-007   7.5919136143512657E-017
 chl          28   2.6748645432157524E-005   8.5707466141667554E-004   3.1209236063453518E-002
 chl2c          29  0.66873427179672384        3.7743217595736761E-002  0.68676297499999994        2.7659222410675287E-007   3.5229455896576062E-006
 chl          29   5.7388444045652041E-004   8.5816514071371675E-004  0.66873427179672384     
 chl2c          30   2.5380056985171612E-002   2.5380056985171612E-002  0.38930277499999999        6.7605533644986529E-007   1.6788054877954536E-016
 chl          30   2.1752603747316340E-005   8.5707466141724485E-004   2.5380056985171612E-002
 chl2c          31  0.62098749289257904        3.7576959810037038E-002  0.63559385000000002        2.7659222410675287E-007   3.7370645210275046E-006
 chl          31   5.3286258418844528E-004   8.5808907632962906E-004  0.62098749289257904     
 chl2c          32  0.24493134746977363        2.0893126428578448E-002  0.24722667500000001        2.7659222410675287E-007   3.6484214882486780E-006
 chl          32   2.1002585459886915E-004   8.5748866679789901E-004  0.24493134746977363     
 chl2c          33  0.56826277765168476        3.7458922634011876E-002  0.60343137499999999        2.7659222410675287E-007   1.3484412221872984E-006
 chl          33   4.8754962543736947E-004   8.5796509046772687E-004  0.56826277765168476     
 chl2c          34  0.36555979202566491        2.5350269098008315E-002  0.38241020000000003        6.7605533644986529E-007   2.8043338780338964E-006
 chl          34   3.1384550077269820E-004   8.5853397342633344E-004  0.36555979202566491     
 chl2c          35   2.5740370148566064E-002   2.5740370148566064E-002  0.49574644999999995        6.7605533644986529E-007   1.2200329375320066E-016
 chl          35   2.2061419029829367E-005   8.5707466141695548E-004   2.5740370148566064E-002
 chl2c          36   3.7770393924465726E-002   3.7770393924465726E-002  0.69587337500000002        2.7659222410675287E-007   1.2798151571119751E-016
 chl          36   3.2370985493633676E-005   8.5704654175357720E-004   3.7770393924465726E-002
 chl2c          37   2.1353674699533250E-002   2.1353674699533250E-002  0.33194060000000003        2.7659222410675287E-007   1.1187053277076096E-016
 chl          37   1.8301693513108899E-005   8.5707466141689130E-004   2.1353674699533250E-002
 chl2c          38   2.1543295686358745E-002   2.1543295686358745E-002  0.38455722500000000        2.7659222410675287E-007   1.7128433004971313E-016
 chl          38   1.8464212856197977E-005   8.5707466141726643E-004   2.1543295686358745E-002
 chl2c          39   2.5670077108751441E-002   2.5670077108751441E-002  0.47091117500000002        6.7605533644986529E-007   1.3850578981908281E-016
 chl          39   2.2001172646532949E-005   8.5707466141705946E-004   2.5670077108751441E-002
 chl2c          40   3.7687445774703773E-002   3.7687445774703773E-002  0.66875547499999999        2.7659222410675287E-007   1.6788567617129719E-016
 chl          40   3.2299895068744799E-005   8.5704654175382841E-004   3.7687445774703773E-002
 chl2c          41   2.5582381488167241E-002   2.5582381488167241E-002  0.44304987499999998        6.7605533644986529E-007   1.0089830599025546E-016
 chl          41   2.1926010952206918E-005   8.5707466141682223E-004   2.5582381488167241E-002
 chl2c          42   3.7949995630725070E-002   3.7949995630725070E-002  0.76234377499999995        2.7659222410675287E-007   1.4193426876346834E-016
 chl          42   3.2524912509822934E-005   8.5704654162041907E-004   3.7949995630725070E-002
 chl2c          43   2.1185090152268007E-002   2.1185090152268007E-002  0.29539925000000000        2.7659222410675287E-007   1.7056713105142813E-016
 chl          43   1.8157203969349270E-005   8.5707466141726188E-004   2.1185090152268007E-002
 chl2c          44   3.7536352708156646E-002   3.7536352708156646E-002  0.62417262500000004        2.7659222410675287E-007   1.2147395851805242E-016
 chl          44   3.2170401273565068E-005   8.5704654162029026E-004   3.7536352708156646E-002
 chl2c          45  0.37280497682054009        4.6544927192009838E-002  0.37662252499999999        8.2033548512883327E-008   1.5085682663173302E-006
 chl          45   3.1959149754799736E-004   8.5726188602316185E-004  0.37280497682054009     
 chl2c          46  0.50907529598920398        3.7083195475449568E-002  0.51876034999999998        2.7659222410675287E-007   3.7710016367924980E-006
 chl          46   4.3673841860652118E-004   8.5790534729813942E-004  0.50907529598920398     
 chl2c          47   3.7519784612651236E-002   3.7519784612651236E-002  0.61962282499999999        2.7659222410675287E-007   1.5467769272218213E-016
 chl          47   3.2156201644618770E-005   8.5704654162049930E-004   3.7519784612651236E-002
 chl2c          48   3.7823212136301673E-002   3.7823212136301673E-002  0.71424949999999998        2.7659222410675287E-007   1.4883223005833184E-016
 chl          48   3.2416253154394450E-005   8.5704654162046233E-004   3.7823212136301673E-002
 chl2c          49   3.7152990741888416E-002   3.7152990741888416E-002  0.53276120000000005        2.7659222410675287E-007   1.3863078229057126E-016
 chl          49   3.1841842226190139E-005   8.5704654162039814E-004   3.7152990741888416E-002
 chl2c          50  0.36984077669650300        2.1533072915600981E-002  0.38132569999999999        2.7659222410675287E-007   1.6982152643783774E-006
 chl          50   3.1720750188108613E-004   8.5768666374338553E-004  0.36984077669650300     
 chl2c          51   2.0700971146093840E-002   2.0700971146093840E-002  0.22275920000000002        2.7659222410675287E-007   1.8178701385590422E-016
 chl          51   1.7742277836048351E-005   8.5707466141733267E-004   2.0700971146093840E-002
 chl2c          52   3.7581825176985564E-002   3.7581825176985564E-002  0.63698869999999996        2.7659222410675287E-007   1.6447567266306379E-016
 chl          52   3.2209373300731624E-005   8.5704654175380673E-004   3.7581825176985564E-002
 chl2c          53   3.7925801262726190E-002   3.7925801262726190E-002  0.75269794999999995        2.7659222410675287E-007   1.4751001531014804E-016
 chl          53   3.2504176815457592E-005   8.5704654175370015E-004   3.7925801262726190E-002
 chl2c          54   3.7082433371327092E-002   3.7082433371327092E-002  0.51861124999999997        2.7659222410675287E-007   1.2128088480594676E-016
 chl          54   3.1781371275760684E-005   8.5704654162028907E-004   3.7082433371327092E-002
 chl2c          55  0.56607521521875026        3.7357235588660491E-002  0.57808280000000001        2.7659222410675287E-007   3.7689336957772857E-006
 chl          55   4.8569208613007402E-004   8.5799920765367986E-004  0.56607521521875026     
 chl2c          56   3.7507394187257688E-002   3.7507394187257688E-002  0.61626080000000005        2.7659222410675287E-007   1.6490424256545943E-016
 chl          56   3.2145582478386140E-005   8.5704654175380954E-004   3.7507394187257688E-002
 chl2c          57  0.66540907052716591        3.7727617852646313E-002  0.68163462500000005        2.7659222410675287E-007   3.8659014960486680E-006
 chl          57   5.7102922764808389E-004   8.5816267457203396E-004  0.66540907052716591     
 chl2c          58  0.61449090394335293        3.7765358178394853E-002  0.69416802499999997        2.7659222410675287E-007   7.4038293660882534E-007
 chl          58   5.2722466905561448E-004   8.5798612424085104E-004  0.61449090394335293     
 chl2c          59   3.7173699120809672E-002   3.7173699120809672E-002  0.53705127500000005        2.7659222410675287E-007   1.6770431723382024E-016
 chl          59   3.1859590270733978E-005   8.5704654162058137E-004   3.7173699120809672E-002
 chl2c          60  0.47496558520566001        3.7607757740906807E-002  0.64452155000000000        2.7659222410675287E-007   2.4968731788359413E-007
 chl          60   4.0736842516150010E-004   8.5767987797496874E-004  0.47496558520566001     
 chl2c          61   3.7805373434125003E-002   3.7805373434125003E-002  0.70794139999999994        2.7659222410675287E-007   1.4440660133300819E-016
 chl          61   3.2400964556385889E-005   8.5704654162043457E-004   3.7805373434125003E-002
 chl2c          62   3.7956103087269030E-002   3.7956103087269030E-002  0.76481592499999995        2.7659222410675287E-007   1.1812703034316450E-016
 chl          62   3.2530146884326352E-005   8.5704654162026934E-004   3.7956103087269030E-002
 chl2c          63  0.68790601313748356        3.7855601011927406E-002  0.72597904999999996        2.7659222410675287E-007   1.8140349306349323E-006
 chl          63   5.9033708944093537E-004   8.5816532806343084E-004  0.68790601313748356     
 chl2c          64   2.5708982294816416E-002   2.5708982294816416E-002  0.48435739999999999        6.7605533644986529E-007   9.8208037841868533E-017
 chl          64   2.2034517295700425E-005   8.5707466141680543E-004   2.5708982294816416E-002
 chl2c          65   3.7953597170552002E-002   3.7953597170552002E-002  0.76379975000000000        2.7659222410675287E-007   1.3037939472632445E-016
 chl          65   3.2527999202130523E-005   8.5704654175359238E-004   3.7953597170552002E-002
 chl2c          66   3.1840477731474713E-002   3.1840477731474713E-002  0.35213202499999996        1.7619454781930773E-007   6.6297005092359080E-017
 chl          66   2.7289666671047857E-005   8.5707466141664323E-004   3.1840477731474713E-002
 chl2c          67   3.7937587124568600E-002   3.7937587124568600E-002  0.75736760000000003        2.7659222410675287E-007   1.3785185116600806E-016
 chl          67   3.2514277842533879E-005   8.5704654162039326E-004   3.7937587124568600E-002
 chl2c          68  0.58713152244026445        3.7855407263856986E-002  0.72590779999999999        2.7659222410675287E-007   4.2472868943960547E-007
 chl          68   5.0368974384853939E-004   8.5788230506698006E-004  0.58713152244026445     
 chl2c          69  0.44564860022506991        2.1732330561541505E-002  0.45524217500000003        2.7659222410675287E-007   2.9245869805435590E-006
 chl          69   3.8228581193989114E-004   8.5781894467260055E-004  0.44564860022506991     
 chl2c          70   3.2658010878182209E-002   3.2658010878182209E-002  0.48694062500000002        1.7619454781930773E-007   9.1723526910226099E-017
 chl          70   2.7990353615963362E-005   8.5707466141677474E-004   3.2658010878182209E-002
 chl2c          71   4.3481058864416305E-002   4.3481058864416305E-002  0.23986107500000001        8.2033548512883327E-008   7.3101417653460882E-017
 chl          71   3.7266513804258734E-005   8.5707466141668909E-004   4.3481058864416305E-002
 chl2c          72   3.7549776402781669E-002   3.7549776402781669E-002  0.62790522500000001        2.7659222410675287E-007   1.6541720661984957E-016
 chl          72   3.2181906009632947E-005   8.5704654175381269E-004   3.7549776402781669E-002
 chl2c          73   3.1852614277819484E-002   3.1852614277819484E-002  0.35362212500000001        1.7619454781930773E-007   8.0779739027399339E-017
 chl          73   2.7300068597400177E-005   8.5707466141674070E-004   3.1852614277819484E-002
 chl2c          74  0.48311655079590704        3.7616827685877569E-002  0.64719590000000005        2.7659222410675287E-007   2.6353828742303898E-007
 chl          74   4.1436726876864494E-004   8.5769628071321181E-004  0.48311655079590704     
 chl2c          75   3.7826830779512356E-002   3.7826830779512356E-002  0.71554212500000003        2.7659222410675287E-007   1.3081726015699436E-016
 chl          75   3.2419354505079510E-005   8.5704654175359498E-004   3.7826830779512356E-002
 chl2c          76  0.54332668158445319        3.7257729557919804E-002  0.55513977500000000        2.7659222410675287E-007   3.5310975085632920E-006
 chl          76   4.6615277603034990E-004   8.5796039809963285E-004  0.54332668158445319     
 chl2c          77   3.7138172437479272E-002   3.7138172437479272E-002  0.52973029999999999        2.7659222410675287E-007   1.1511563362812366E-016
 chl          77   3.1829142249638111E-005   8.5704654162025037E-004   3.7138172437479272E-002
 chl2c          78  0.44756522795548170        4.7515248899399322E-002  0.45117492500000000        8.2033548512883327E-008   2.2945210252603306E-006
 chl          78   3.8369749510068794E-004   8.5729960938532395E-004  0.44756522795548170     
 prod   3.4195566697061598E-007  0.80792394457813022        10.000000000000000     
 dcdom   6.5480826944703934E-013  -4.5500417348601450E-010
 chl2c           1   3.7477407714772232E-002   3.7477407714772232E-002  0.60826437499999997        2.7574193924944773E-008   1.4506060843722160E-016
 chl           1   3.2430726194110446E-005   8.6534069914679388E-004   3.7477407714772232E-002
 chl2c           2  0.48152105296788128        3.2640259920490348E-002  0.48302390000000001        1.9326022970382290E-008   1.4954834730365653E-006
 chl           2   4.1669661479558210E-004   8.6537569277033636E-004  0.48152105296788128     
 chl2c           3   3.7922212503796585E-002   3.7922212503796585E-002  0.75128689999999998        2.7574193924944773E-008   1.5631623076595606E-016
 chl           3   3.2815633881228631E-005   8.6534069914679399E-004   3.7922212503796585E-002
 chl2c           4  0.77008382660144192        3.7976509103863923E-002  0.77318742499999993        2.7574193924944773E-008   2.6450269130103353E-006
 chl           4   6.6638635919721043E-004   8.6534262398176519E-004  0.77008382660144192     
 chl2c           5  0.48186302113975776        2.5710500362372445E-002  0.48489679999999996        7.2573090140751114E-008   2.7946962772661556E-006
 chl           5   4.1699288764529259E-004   8.6537640232067011E-004  0.48186302113975776     
 chl2c           6   3.1261039902252048E-002   3.1261039902252048E-002  0.29222855000000003        1.9326022970382290E-008   9.7357546367826635E-017
 chl           6   2.7052535638073827E-005   8.6537542329565822E-004   3.1261039902252048E-002
 chl2c           7  0.22752082774583843        4.3064391842467263E-002  0.22770740000000000        8.9624932856425529E-009   1.2443716050111913E-006
 chl           7   1.9689094656487045E-004   8.6537548458998949E-004  0.22752082774583843     
 chl2c           8   4.7969800906495587E-002   4.7969800906495587E-002  0.49578364999999996        8.9624932856425529E-009   6.3119368948540395E-017
 chl           8   4.1511886764867065E-005   8.6537542329565812E-004   4.7969800906495587E-002
 chl2c           9  0.27551433533640896        2.4803669054600401E-002  0.28700202499999999        7.2573090140751114E-008   2.4977104268977452E-007
 chl           9   2.3842338944497340E-004   8.6537562248386560E-004  0.27551433533640896     
 chl2c          10  0.38931639483122904        2.5387016219684602E-002  0.39094662499999999        7.2573090140751114E-008   3.3877929147115783E-006
 chl          10   3.3690515805981440E-004   8.6537624033497171E-004  0.38931639483122904     
 chl2c          11   2.1820572217820047E-002   2.1820572217820047E-002  0.49737575000000001        2.7574193924944773E-008   1.4315998654901425E-016
 chl          11   1.8882986919549505E-005   8.6537542329565833E-004   2.1820572217820047E-002
 chl2c          12   4.5290941298723353E-002   4.5290941298723353E-002  0.30768942500000002        8.9624932856425529E-009   6.2570919047451387E-017
 chl          12   3.9193667497841528E-005   8.6537542329565812E-004   4.5290941298723353E-002
 chl2c          13   3.7935816987997487E-002   3.7935816987997487E-002  0.75666275000000005        2.7574193924944773E-008   1.3022370507508962E-016
 chl          13   3.2827406390000349E-005   8.6534069901240333E-004   3.7935816987997487E-002
 chl2c          14   4.6856526101924839E-002   4.6856526101924839E-002  0.39804095000000000        8.9624932856425529E-009   7.6537109798524922E-017
 chl          14   4.0548486109617266E-005   8.6537542329565822E-004   4.6856526101924839E-002
 chl2c          15  0.25584008638790545        2.0954299823745293E-002  0.25607262500000000        2.7574193924944773E-008   3.8842708030207187E-006
 chl          15   2.2139778223906586E-004   8.6537565463209673E-004  0.25584008638790545     
 chl2c          16   3.7823443882273475E-002   3.7823443882273475E-002  0.71433214999999994        2.7574193924944773E-008   1.6266079171121457E-016
 chl          16   3.2730165373226059E-005   8.6534069914679409E-004   3.7823443882273475E-002
 chl2c          17   3.7542254757581245E-002   3.7542254757581245E-002  0.62580860000000005        2.7574193924944773E-008   1.6258026086604909E-016
 chl          17   3.2486840979472408E-005   8.6534069914679409E-004   3.7542254757581245E-002
 chl2c          18   2.5694475239060960E-002   2.5694475239060960E-002  0.47925950000000000        7.2573090140751114E-008   1.4934970724907099E-016
 chl          18   2.2235367386362190E-005   8.6537542329565833E-004   2.5694475239060960E-002
 chl2c          19  0.62879508148063912        3.7570220750293731E-002  0.63367130000000005        2.7574193924944773E-008   1.1265820933460611E-006
 chl          19   5.4412289077005696E-004   8.6534215485400674E-004  0.62879508148063912     
 chl2c          20   3.7020645196759419E-002   3.7020645196759419E-002  0.50678202500000002        2.7574193924944773E-008   1.4326597802918783E-016
 chl          20   3.2035470992453976E-005   8.6534069901240355E-004   3.7020645196759419E-002
 chl2c          21  0.69337680358208786        3.7838475073783531E-002  0.71973185000000006        2.7574193924944773E-008   2.6106525445249240E-007
 chl          21   6.0000772596751262E-004   8.6534150388040576E-004  0.69337680358208786     
 chl2c          22  0.64458403310310264        3.7613353106285476E-002  0.64616892500000001        2.7574193924944773E-008   3.6232541379699536E-006
 chl          22   5.5778587041083693E-004   8.6534236308273224E-004  0.64458403310310264     
 chl2c          23   3.2286562315070731E-002   3.2286562315070731E-002  0.41564179999999995        1.9326022970382290E-008   8.3307849405114133E-017
 chl          23   2.7939997530165981E-005   8.6537542329565822E-004   3.2286562315070731E-002
 chl2c          24   3.7348402796863071E-002   3.7348402796863071E-002  0.57597492500000003        2.7574193924944773E-008   1.1651957727361582E-016
 chl          24   3.2319092983234285E-005   8.6534069901240322E-004   3.7348402796863071E-002
 chl2c          25   4.5426679235459781E-002   4.5426679235459781E-002  0.31406487500000002        8.9624932856425529E-009   6.5821505648095989E-017
 chl          25   3.9311131772302092E-005   8.6537542329565812E-004   4.5426679235459781E-002
 chl2c          26   4.7955660680174553E-002   4.7955660680174553E-002  0.49427735000000000        8.9624932856425529E-009   6.0402258349584268E-017
 chl          26   4.1499650160529001E-005   8.6537542329565812E-004   4.7955660680174553E-002
 chl2c          27   4.5333133499525620E-002   4.5333133499525620E-002  0.30964730000000001        8.9624932856425529E-009   7.5939414722832860E-017
 chl          27   3.9230179591470569E-005   8.6537542329565822E-004   4.5333133499525620E-002
 chl2c          28   3.1209236063453518E-002   3.1209236063453518E-002  0.28776342500000002        1.9326022970382290E-008   7.5513386713200265E-017
 chl          28   2.7007705869145206E-005   8.6537542329565812E-004   3.1209236063453518E-002
 chl2c          29  0.68484462412290836        3.7743217595736761E-002  0.68676297499999994        2.7574193924944773E-008   3.3802102100568171E-006
 chl          29   5.9262513023491340E-004   8.6534245777850419E-004  0.68484462412290836     
 chl2c          30   2.5380056985171612E-002   2.5380056985171612E-002  0.38930277499999999        7.2573090140751114E-008   1.6350563548237697E-016
 chl          30   2.1963277556810817E-005   8.6537542329565844E-004   2.5380056985171612E-002
 chl2c          31  0.63403650362205732        3.7576959810037038E-002  0.63559385000000002        2.7574193924944773E-008   3.5676444111928921E-006
 chl          31   5.4865863017094184E-004   8.6534233760457370E-004  0.63403650362205732     
 chl2c          32  0.24699624920446964        2.0893126428578448E-002  0.24722667500000001        2.7574193924944773E-008   3.6536540273034407E-006
 chl          32   2.1374453880743606E-004   8.6537564637466629E-004  0.24699624920446964     
 chl2c          33  0.60000541599703772        3.7458922634011876E-002  0.60343137499999999        2.7574193924944773E-008   1.4570475539337333E-006
 chl          33   5.1920997495955132E-004   8.6534214711507648E-004  0.60000541599703772     
 chl2c          34  0.38043446184240942        2.5350269098008315E-002  0.38241020000000003        7.2573090140751114E-008   2.6719329208830998E-006
 chl          34   3.2921893269950275E-004   8.6537620988678433E-004  0.38043446184240942     
 chl2c          35   2.5740370148566064E-002   2.5740370148566064E-002  0.49574644999999995        7.2573090140751114E-008   1.1857652933069203E-016
 chl          35   2.2275083713102286E-005   8.6537542329565833E-004   2.5740370148566064E-002
 chl2c          36   3.7770393924465726E-002   3.7770393924465726E-002  0.69587337500000002        2.7574193924944773E-008   1.2410098231255835E-016
 chl          36   3.2684259085646980E-005   8.6534069914679366E-004   3.7770393924465726E-002
 chl2c          37   2.1353674699533250E-002   2.1353674699533250E-002  0.33194060000000003        2.7574193924944773E-008   1.0867724909449855E-016
 chl          37   1.8478945282026376E-005   8.6537542329565833E-004   2.1353674699533250E-002
 chl2c          38   2.1543295686358745E-002   2.1543295686358745E-002  0.38455722500000000        2.7574193924944773E-008   1.6684601587205483E-016
 chl          38   1.8643038623766231E-005   8.6537542329565844E-004   2.1543295686358745E-002
 chl2c          39   2.5670077108751441E-002   2.5670077108751441E-002  0.47091117500000002        7.2573090140751114E-008   1.3471762664226393E-016
 chl          39   2.2214253844017967E-005   8.6537542329565833E-004   2.5670077108751441E-002
 chl2c          40   3.7687445774703773E-002   3.7687445774703773E-002  0.66875547499999999        2.7574193924944773E-008   1.6297171577572617E-016
 chl          40   3.2612480675739052E-005   8.6534069914679409E-004   3.7687445774703773E-002
 chl2c          41   2.5582381488167241E-002   2.5582381488167241E-002  0.44304987499999998        7.2573090140751114E-008   9.7967922259989264E-017
 chl          41   2.2138364209233736E-005   8.6537542329565822E-004   2.5582381488167241E-002
 chl2c          42   3.7949995630725070E-002   3.7949995630725070E-002  0.76234377499999995        2.7574193924944773E-008   1.3768310724530246E-016
 chl          42   3.2839675746609285E-005   8.6534069901240344E-004   3.7949995630725070E-002
 chl2c          43   2.1185090152268007E-002   2.1185090152268007E-002  0.29539925000000000        2.7574193924944773E-008   1.6614209767020704E-016
 chl          43   1.8333056358075611E-005   8.6537542329565844E-004   2.1185090152268007E-002
 chl2c          44   3.7536352708156646E-002   3.7536352708156646E-002  0.62417262500000004        2.7574193924944773E-008   1.1776973119184568E-016
 chl          44   3.2481733690852386E-005   8.6534069901240322E-004   3.7536352708156646E-002
 chl2c          45  0.37615873075000666        4.6544927192009838E-002  0.37662252499999999        8.9624932856425529E-009   1.3688344434706607E-006
 chl          45   3.2551855880990564E-004   8.6537552421252651E-004  0.37615873075000666     
 chl2c          46  0.51773625055940620        3.7083195475449568E-002  0.51876034999999998        2.7574193924944773E-008   3.6158137324968280E-006
 chl          46   4.4801894747247250E-004   8.6534204817297381E-004  0.51773625055940620     
 chl2c          47   3.7519784612651236E-002   3.7519784612651236E-002  0.61962282499999999        2.7574193924944773E-008   1.5009677197159454E-016
 chl          47   3.2467396643506450E-005   8.6534069901240366E-004   3.7519784612651236E-002
 chl2c          48   3.7823212136301673E-002   3.7823212136301673E-002  0.71424949999999998        2.7574193924944773E-008   1.4440153904720540E-016
 chl          48   3.2729964828921717E-005   8.6534069901240355E-004   3.7823212136301673E-002
 chl2c          49   3.7152990741888416E-002   3.7152990741888416E-002  0.53276120000000005        2.7574193924944773E-008   1.3446646431504109E-016
 chl          49   3.2149994978987073E-005   8.6534069901240333E-004   3.7152990741888416E-002
 chl2c          50  0.38024626902460035        2.1533072915600981E-002  0.38132569999999999        2.7574193924944773E-008   1.8519915085767652E-006
 chl          50   3.2905590143681606E-004   8.6537575314257070E-004  0.38024626902460035     
 chl2c          51   2.0700971146093840E-002   2.0700971146093840E-002  0.22275920000000002        2.7574193924944773E-008   1.7715896855344504E-016
 chl          51   1.7914111668182173E-005   8.6537542329565855E-004   2.0700971146093840E-002
 chl2c          52   3.7581825176985564E-002   3.7581825176985564E-002  0.63698869999999996        2.7574193924944773E-008   1.5964684747600242E-016
 chl          52   3.2521082873865271E-005   8.6534069914679399E-004   3.7581825176985564E-002
 chl2c          53   3.7925801262726190E-002   3.7925801262726190E-002  0.75269794999999995        2.7574193924944773E-008   1.4311354786363140E-016
 chl          53   3.2818739380389837E-005   8.6534069914679388E-004   3.7925801262726190E-002
 chl2c          54   3.7082433371327092E-002   3.7082433371327092E-002  0.51861124999999997        2.7574193924944773E-008   1.1758192194326835E-016
 chl          54   3.2088938814625054E-005   8.6534069901240322E-004   3.7082433371327092E-002
 chl2c          55  0.57682893798594703        3.7357235588660491E-002  0.57808280000000001        2.7574193924944773E-008   3.6665716133947915E-006
 chl          55   4.9915441992709573E-004   8.6534219602425072E-004  0.57682893798594703     
 chl2c          56   3.7507394187257688E-002   3.7507394187257688E-002  0.61626080000000005        2.7574193924944773E-008   1.6006468520202654E-016
 chl          56   3.2456674709175963E-005   8.6534069914679399E-004   3.7507394187257688E-002
 chl2c          57  0.67988778578738218        3.7727617852646313E-002  0.68163462500000005        2.7574193924944773E-008   3.6577058755319629E-006
 chl          57   5.8833576459171356E-004   8.6534245340259841E-004  0.67988778578738218     
 chl2c          58  0.68684163711092505        3.7765358178394853E-002  0.69416802499999997        2.7574193924944773E-008   8.9723073384153905E-007
 chl          58   5.9435304218997313E-004   8.6534218381112058E-004  0.68684163711092505     
 chl2c          59   3.7173699120809672E-002   3.7173699120809672E-002  0.53705127500000005        2.7574193924944773E-008   1.6279486987801022E-016
 chl          59   3.2167914782078218E-005   8.6534069901240377E-004   3.7173699120809672E-002
 chl2c          60  0.62877650144512276        3.7607757740906807E-002  0.64452155000000000        2.7574193924944773E-008   3.5486451304458363E-007
 chl          60   5.4410652815822715E-004   8.6534170235004362E-004  0.62877650144512276     
 chl2c          61   3.7805373434125003E-002   3.7805373434125003E-002  0.70794139999999994        2.7574193924944773E-008   1.4009081307834329E-016
 chl          61   3.2714528273910678E-005   8.6534069901240344E-004   3.7805373434125003E-002
 chl2c          62   3.7956103087269030E-002   3.7956103087269030E-002  0.76481592499999995        2.7574193924944773E-008   1.1451433713617892E-016
 chl          62   3.2844960777324221E-005   8.6534069901240322E-004   3.7956103087269030E-002
 chl2c          63  0.72212850487059832        3.7855601011927406E-002  0.72597904999999996        2.7574193924944773E-008   1.8771076893166131E-006
 chl          63   6.2488845838152554E-004   8.6534246213352606E-004  0.72212850487059832     
 chl2c          64   2.5708982294816416E-002   2.5708982294816416E-002  0.48435739999999999        7.2573090140751114E-008   9.5343727780281522E-017
 chl          64   2.2247921435877339E-005   8.6537542329565822E-004   2.5708982294816416E-002
 chl2c          65   3.7953597170552002E-002   3.7953597170552002E-002  0.76379975000000000        2.7574193924944773E-008   1.2643445057426518E-016
 chl          65   3.2842792310701241E-005   8.6534069914679366E-004   3.7953597170552002E-002
 chl2c          66   3.1840477731474713E-002   3.1840477731474713E-002  0.35213202499999996        1.9326022970382290E-008   6.5477265441352804E-017
 chl          66   2.7553966894810906E-005   8.6537542329565812E-004   3.1840477731474713E-002
 chl2c          67   3.7937587124568600E-002   3.7937587124568600E-002  0.75736760000000003        2.7574193924944773E-008   1.3370809192909733E-016
 chl          67   3.2828938161218143E-005   8.6534069901240333E-004   3.7937587124568600E-002
 chl2c          68  0.71353349121366227        3.7855407263856986E-002  0.72590779999999999        2.7574193924944773E-008   5.7709552447652540E-007
 chl          68   6.1745051401548390E-004   8.6534202194945458E-004  0.71353349121366227     
 chl2c          69  0.45422813845148818        2.1732330561541505E-002  0.45524217500000003        2.7574193924944773E-008   2.8114848360919507E-006
 chl          69   3.9307804977240743E-004   8.6537582438739292E-004  0.45422813845148818     
 chl2c          70   3.2658010878182209E-002   3.2658010878182209E-002  0.48694062500000002        1.9326022970382290E-008   9.1269449292775527E-017
 chl          70   2.8261439987701139E-005   8.6537542329565822E-004   3.2658010878182209E-002
 chl2c          71   4.3481058864416305E-002   4.3481058864416305E-002  0.23986107500000001        8.9624932856425529E-009   7.2210074144938287E-017
 chl          71   3.7627439720137693E-005   8.6537542329565822E-004   4.3481058864416305E-002
 chl2c          72   3.7549776402781669E-002   3.7549776402781669E-002  0.62790522500000001        2.7574193924944773E-008   1.6056481593614036E-016
 chl          72   3.2493349765188873E-005   8.6534069914679399E-004   3.7549776402781669E-002
 chl2c          73   3.1852614277819484E-002   3.1852614277819484E-002  0.35362212500000001        1.9326022970382290E-008   7.9810402488756265E-017
 chl          73   2.7564469563741364E-005   8.6537542329565822E-004   3.1852614277819484E-002
 chl2c          74  0.63268243382764000        3.7616827685877569E-002  0.64719590000000005        2.7574193924944773E-008   3.8897636980334705E-007
 chl          74   5.4748651074850612E-004   8.6534172829216946E-004  0.63268243382764000     
 chl2c          75   3.7826830779512356E-002   3.7826830779512356E-002  0.71554212500000003        2.7574193924944773E-008   1.2686058640322516E-016
 chl          75   3.2733096193250678E-005   8.6534069914679366E-004   3.7826830779512356E-002
 chl2c          76  0.55389132421865961        3.7257729557919804E-002  0.55513977500000000        2.7574193924944773E-008   3.3956921619198721E-006
 chl          76   4.7930550119706260E-004   8.6534213525223450E-004  0.55389132421865961     
 chl2c          77   3.7138172437479272E-002   3.7138172437479272E-002  0.52973029999999999        2.7574193924944773E-008   1.1158579720299978E-016
 chl          77   3.2137172097091482E-005   8.6534069901240322E-004   3.7138172437479272E-002
 chl2c          78  0.45076708398767701        4.7515248899399322E-002  0.45117492500000000        8.9624932856425529E-009   2.2346273081793915E-006
 chl          78   3.9008281076049290E-004   8.6537554452657621E-004  0.45076708398767701     
 prod   3.3715746736533680E-007   8.6818288437454108E-002   10.000000000000000     
 dcdom   7.0709264168814406E-013  -3.1277334145523288E-010
 chl2c           1   3.7477407714772232E-002   3.7477407714772232E-002  0.60826437499999997        2.9614408623067430E-009   1.4198369768047729E-016
 chl           1   3.2760917690761101E-005   8.7415111365474554E-004   3.7477407714772232E-002
 chl2c           2  0.48284852177361598        3.2640259920490348E-002  0.48302390000000001        2.2029826246247489E-009   1.4648222522273841E-006
 chl           2   4.2210037584939914E-004   8.7418798404709903E-004  0.48284852177361598     
 chl2c           3   3.7922212503796585E-002   3.7922212503796585E-002  0.75128689999999998        2.9614408623067430E-009   1.5303672456543392E-016
 chl           3   3.3149744292445700E-005   8.7415111365474554E-004   3.7922212503796585E-002
 chl2c           4  0.77287175156399002        3.7976509103863923E-002  0.77318742499999993        2.9614408623067430E-009   2.8030267842941045E-006
 chl           4   6.7560670329001469E-004   8.7415111488141600E-004  0.77287175156399002     
 chl2c           5  0.48454506533204866        2.5710500362372445E-002  0.48489679999999996        8.0540930517970660E-009   2.6900166281840559E-006
 chl           5   4.2358347400740234E-004   8.7418798438723005E-004  0.48454506533204866     
 chl2c           6   3.1261039902252048E-002   3.1261039902252048E-002  0.29222855000000003        2.2029826246247489E-009   9.7202642208467996E-017
 chl           6   2.7328025447326361E-005   8.7418798391788782E-004   3.1261039902252048E-002
 chl2c           7  0.22768695944177636        4.3064391842467263E-002  0.22770740000000000        1.0221040222501990E-009   1.2962466638347623E-006
 chl           7   1.9904120404549050E-004   8.7418798394727079E-004  0.22768695944177636     
 chl2c           8   4.7969800906495587E-002   4.7969800906495587E-002  0.49578364999999996        1.0221040222501990E-009   6.2984461236760979E-017
 chl           8   4.1934623543391842E-005   8.7418798391788782E-004   4.7969800906495587E-002
 chl2c           9  0.28636444323751614        2.4803669054600401E-002  0.28700202499999999        8.0540930517970660E-009   5.1910452497741084E-007
 chl           9   2.5033635532693908E-004   8.7418798401345287E-004  0.28636444323751614     
 chl2c          10  0.39075843143365480        2.5387016219684602E-002  0.39094662499999999        8.0540930517970660E-009   3.2689456551277007E-006
 chl          10   3.4159632552695018E-004   8.7418798430955510E-004  0.39075843143365480     
 chl2c          11   2.1820572217820047E-002   2.1820572217820047E-002  0.49737575000000001        2.9614408623067430E-009   1.4042730842726109E-016
 chl          11   1.9075282035030780E-005   8.7418798391788782E-004   2.1820572217820047E-002
 chl2c          12   4.5290941298723353E-002   4.5290941298723353E-002  0.30768942500000002        1.0221040222501990E-009   6.2437033589211722E-017
 chl          12   3.9592796663674370E-005   8.7418798391788782E-004   4.5290941298723353E-002
 chl2c          13   3.7935816987997487E-002   3.7935816987997487E-002  0.75666275000000005        2.9614408623067430E-009   1.2742158694178377E-016
 chl          13   3.3161636662321404E-005   8.7415111351927426E-004   3.7935816987997487E-002
 chl2c          14   4.6856526101924839E-002   4.6856526101924839E-002  0.39804095000000000        1.0221040222501990E-009   7.6409621670957379E-017
 chl          14   4.0961412086437561E-005   8.7418798391788782E-004   4.6856526101924839E-002
 chl2c          15  0.25604674567347152        2.0954299823745293E-002  0.25607262500000000        2.9614408623067430E-009   3.7514789371544498E-006
 chl          15   2.2383298841741880E-004   8.7418798402876820E-004  0.25604674567347152     
 chl2c          16   3.7823443882273475E-002   3.7823443882273475E-002  0.71433214999999994        2.9614408623067430E-009   1.5926930182184941E-016
 chl          16   3.3063405591947132E-005   8.7415111365474554E-004   3.7823443882273475E-002
 chl2c          17   3.7542254757581245E-002   3.7542254757581245E-002  0.62580860000000005        2.9614408623067430E-009   1.5919018240671727E-016
 chl          17   3.2817603805449813E-005   8.7415111365474554E-004   3.7542254757581245E-002
 chl2c          18   2.5694475239060960E-002   2.5694475239060960E-002  0.47925950000000000        8.0540930517970660E-009   1.4653058903008206E-016
 chl          18   2.2461801507062791E-005   8.7418798391788782E-004   2.5694475239060960E-002
 chl2c          19  0.63321775154441484        3.7570220750293731E-002  0.63367130000000005        2.9614408623067430E-009   1.3099855207402212E-006
 chl          19   5.5352800328611949E-004   8.7415111458272860E-004  0.63321775154441484     
 chl2c          20   3.7020645196759419E-002   3.7020645196759419E-002  0.50678202500000002        2.9614408623067430E-009   1.4022183634219659E-016
 chl          20   3.2361638221949218E-005   8.7415111351927426E-004   3.7020645196759419E-002
 chl2c          21  0.71802182893331779        3.7838475073783531E-002  0.71973185000000006        2.9614408623067430E-009   4.4748654092242930E-007
 chl          21   6.2765958166185781E-004   8.7415111403270178E-004  0.71802182893331779     
 chl2c          22  0.64599544978079171        3.7613353106285476E-002  0.64616892500000001        2.9614408623067430E-009   3.5629616787347135E-006
 chl          22   5.6469764252664882E-004   8.7415111471492559E-004  0.64599544978079171     
 chl2c          23   3.2286562315070731E-002   3.2286562315070731E-002  0.41564179999999995        2.2029826246247489E-009   8.3137142700358125E-017
 chl          23   2.8224524817850934E-005   8.7418798391788782E-004   3.2286562315070731E-002
 chl2c          24   3.7348402796863071E-002   3.7348402796863071E-002  0.57597492500000003        2.9614408623067430E-009   1.1397915663514855E-016
 chl          24   3.2648147893044230E-005   8.7415111351927426E-004   3.7348402796863071E-002
 chl2c          25   4.5426679235459781E-002   4.5426679235459781E-002  0.31406487500000002        1.0221040222501990E-009   6.5681599831442251E-017
 chl          25   3.9711457136931167E-005   8.7418798391788782E-004   4.5426679235459781E-002
 chl2c          26   4.7955660680174553E-002   4.7955660680174553E-002  0.49427735000000000        1.0221040222501990E-009   6.0272440807295841E-017
 chl          26   4.1922262327452115E-005   8.7418798391788782E-004   4.7955660680174553E-002
 chl2c          27   4.5333133499525620E-002   4.5333133499525620E-002  0.30964730000000001        1.0221040222501990E-009   7.5812758595971841E-017
 chl          27   3.9629680578630768E-005   8.7418798391788782E-004   4.5333133499525620E-002
 chl2c          28   3.1209236063453518E-002   3.1209236063453518E-002  0.28776342500000002        2.2029826246247489E-009   7.5387325165405943E-017
 chl          28   2.7282739153927868E-005   8.7418798391788782E-004   3.1209236063453518E-002
 chl2c          29  0.68654845184589219        3.7743217595736761E-002  0.68676297499999994        2.9614408623067430E-009   3.2544451815166706E-006
 chl          29   6.0014709443539341E-004   8.7415111463991311E-004  0.68654845184589219     
 chl2c          30   2.5380056985171612E-002   2.5380056985171612E-002  0.38930277499999999        8.0540930517970660E-009   1.6049803801932023E-016
 chl          30   2.2186940847588278E-005   8.7418798391788782E-004   2.5380056985171612E-002
 chl2c          31  0.63541783352308323        3.7576959810037038E-002  0.63559385000000002        2.9614408623067430E-009   3.3974950341708674E-006
 chl          31   5.5545120738759678E-004   8.7415111456329395E-004  0.63541783352308323     
 chl2c          32  0.24720209693460726        2.0893126428578448E-002  0.24722667500000001        2.9614408623067430E-009   3.6819073160279603E-006
 chl          32   2.1610110276597025E-004   8.7418798402481108E-004  0.24720209693460726     
 chl2c          33  0.60310079394891647        3.7458922634011876E-002  0.60343137499999999        2.9614408623067430E-009   1.6300949431565974E-006
 chl          33   5.2720123115147246E-004   8.7415111444228539E-004  0.60310079394891647     
 chl2c          34  0.38217712883944444        2.5350269098008315E-002  0.38241020000000003        8.0540930517970660E-009   2.5251795848752714E-006
 chl          34   3.3409465390379337E-004   8.7418798429497106E-004  0.38217712883944444     
 chl2c          35   2.5740370148566064E-002   2.5740370148566064E-002  0.49574644999999995        8.0540930517970660E-009   1.1621185408975966E-016
 chl          35   2.2501922285475151E-005   8.7418798391788782E-004   2.5740370148566064E-002
 chl2c          36   3.7770393924465726E-002   3.7770393924465726E-002  0.69587337500000002        2.9614408623067430E-009   1.2141484518805002E-016
 chl          36   3.3017031912250151E-005   8.7415111365474554E-004   3.7770393924465726E-002
 chl2c          37   2.1353674699533250E-002   2.1353674699533250E-002  0.33194060000000003        2.9614408623067430E-009   1.0647210479312595E-016
 chl          37   1.8667125834823382E-005   8.7418798391788782E-004   2.1353674699533250E-002
 chl2c          38   2.1543295686358745E-002   2.1543295686358745E-002  0.38455722500000000        2.9614408623067430E-009   1.6379579108057246E-016
 chl          38   1.8832890223004879E-005   8.7418798391788782E-004   2.1543295686358745E-002
 chl2c          39   2.5670077108751441E-002   2.5670077108751441E-002  0.47091117500000002        8.0540930517970660E-009   1.3210684975021946E-016
 chl          39   2.2440472954716144E-005   8.7418798391788782E-004   2.5670077108751441E-002
 chl2c          40   3.7687445774703773E-002   3.7687445774703773E-002  0.66875547499999999        2.9614408623067430E-009   1.5957477885310688E-016
 chl          40   3.2944522694760136E-005   8.7415111365474554E-004   3.7687445774703773E-002
 chl2c          41   2.5582381488167241E-002   2.5582381488167241E-002  0.44304987499999998        8.0540930517970660E-009   9.5942839851524440E-017
 chl          41   2.2363810496959216E-005   8.7418798391788782E-004   2.5582381488167241E-002
 chl2c          42   3.7949995630725070E-002   3.7949995630725070E-002  0.76234377499999995        2.9614408623067430E-009   1.3474173010935960E-016
 chl          42   3.3174030938649915E-005   8.7415111351927426E-004   3.7949995630725070E-002
 chl2c          43   2.1185090152268007E-002   2.1185090152268007E-002  0.29539925000000000        2.9614408623067430E-009   1.6310079751385440E-016
 chl          43   1.8519751249329868E-005   8.7418798391788782E-004   2.1185090152268007E-002
 chl2c          44   3.7536352708156646E-002   3.7536352708156646E-002  0.62417262500000004        2.9614408623067430E-009   1.1520512156080015E-016
 chl          44   3.2812444517287356E-005   8.7415111351927426E-004   3.7536352708156646E-002
 chl2c          45  0.37656048386870500        4.6544927192009838E-002  0.37662252499999999        1.0221040222501990E-009   1.1682248155851230E-006
 chl          45   3.2918465023454492E-004   8.7418798396626612E-004  0.37656048386870500     
 chl2c          46  0.51864565059396284        3.7083195475449568E-002  0.51876034999999998        2.9614408623067430E-009   3.4733569304358809E-006
 chl          46   4.5337467343444589E-004   8.7415111437882996E-004  0.51864565059396284     
 chl2c          47   3.7519784612651236E-002   3.7519784612651236E-002  0.61962282499999999        2.9614408623067430E-009   1.4692858972467082E-016
 chl          47   3.2797961498152409E-005   8.7415111351927426E-004   3.7519784612651236E-002
 chl2c          48   3.7823212136301673E-002   3.7823212136301673E-002  0.71424949999999998        2.9614408623067430E-009   1.4133664762211543E-016
 chl          48   3.3063203005823833E-005   8.7415111351927426E-004   3.7823212136301673E-002
 chl2c          49   3.7152990741888416E-002   3.7152990741888416E-002  0.53276120000000005        2.9614408623067430E-009   1.3158486395043533E-016
 chl          49   3.2477328227593048E-005   8.7415111351927426E-004   3.7152990741888416E-002
 chl2c          50  0.38122189723295974        2.1533072915600981E-002  0.38132569999999999        2.9614408623067430E-009   2.0736623993094925E-006
 chl          50   3.3325960182771118E-004   8.7418798407600537E-004  0.38122189723295974     
 chl2c          51   2.0700971146093840E-002   2.0700971146093840E-002  0.22275920000000002        2.9614408623067430E-009   1.7398153164915937E-016
 chl          51   1.8096540231346143E-005   8.7418798391788782E-004   2.0700971146093840E-002
 chl2c          52   3.7581825176985564E-002   3.7581825176985564E-002  0.63698869999999996        2.9614408623067430E-009   1.5630835626661434E-016
 chl          52   3.2852194331639888E-005   8.7415111365474554E-004   3.7581825176985564E-002
 chl2c          53   3.7925801262726190E-002   3.7925801262726190E-002  0.75269794999999995        2.9614408623067430E-009   1.4007219540753370E-016
 chl          53   3.3152881410060651E-005   8.7415111365474554E-004   3.7925801262726190E-002
 chl2c          54   3.7082433371327092E-002   3.7082433371327092E-002  0.51861124999999997        2.9614408623067430E-009   1.1502094214084940E-016
 chl          54   3.2415650423549872E-005   8.7415111351927426E-004   3.7082433371327092E-002
 chl2c          55  0.57794479369278895        3.7357235588660491E-002  0.57808280000000001        2.9614408623067430E-009   3.5846811931245643E-006
 chl          55   5.0521108551045395E-004   8.7415111447305960E-004  0.57794479369278895     
 chl2c          56   3.7507394187257688E-002   3.7507394187257688E-002  0.61626080000000005        2.9614408623067430E-009   1.5671882509911993E-016
 chl          56   3.2787130399078840E-005   8.7415111365474554E-004   3.7507394187257688E-002
 chl2c          57  0.68143387867689342        3.7727617852646313E-002  0.68163462500000005        2.9614408623067430E-009   3.4261063049794425E-006
 chl          57   5.9567618459687767E-004   8.7415111463708377E-004  0.68143387867689342     
 chl2c          58  0.69354663412204409        3.7765358178394853E-002  0.69416802499999997        2.9614408623067430E-009   1.1472246472950732E-006
 chl          58   6.0626456324579280E-004   8.7415111460134023E-004  0.69354663412204409     
 chl2c          59   3.7173699120809672E-002   3.7173699120809672E-002  0.53705127500000005        2.9614408623067430E-009   1.5940103062507031E-016
 chl          59   3.2495430480086243E-005   8.7415111351927426E-004   3.7173699120809672E-002
 chl2c          60  0.64335392501329602        3.7607757740906807E-002  0.64452155000000000        2.9614408623067430E-009   5.2584419805390024E-007
 chl          60   5.6238855034906421E-004   8.7415111415919543E-004  0.64335392501329602     
 chl2c          61   3.7805373434125003E-002   3.7805373434125003E-002  0.70794139999999994        2.9614408623067430E-009   1.3710496389563385E-016
 chl          61   3.3047609284452363E-005   8.7415111351927426E-004   3.7805373434125003E-002
 chl2c          62   3.7956103087269030E-002   3.7956103087269030E-002  0.76481592499999995        2.9614408623067430E-009   1.1201284834008440E-016
 chl          62   3.3179369778588583E-005   8.7415111351927426E-004   3.7956103087269030E-002
 chl2c          63  0.72558656421827061        3.7855601011927406E-002  0.72597904999999996        2.9614408623067430E-009   1.9872955532970276E-006
 chl          63   6.3427230397962800E-004   8.7415111477839673E-004  0.72558656421827061     
 chl2c          64   2.5708982294816416E-002   2.5708982294816416E-002  0.48435739999999999        8.0540930517970660E-009   9.3363964206498353E-017
 chl          64   2.2474483400886237E-005   8.7418798391788782E-004   2.5708982294816416E-002
 chl2c          65   3.7953597170552002E-002   3.7953597170552002E-002  0.76379975000000000        2.9614408623067430E-009   1.2370393253733223E-016
 chl          65   3.3177179233841633E-005   8.7415111365474554E-004   3.7953597170552002E-002
 chl2c          66   3.1840477731474713E-002   3.1840477731474713E-002  0.35213202499999996        2.2029826246247489E-009   6.5337992812774570E-017
 chl          66   2.7834563035060281E-005   8.7418798391788782E-004   3.1840477731474713E-002
 chl2c          67   3.7937587124568600E-002   3.7937587124568600E-002  0.75736760000000003        2.9614408623067430E-009   1.3084064542960199E-016
 chl          67   3.3163184029176122E-005   8.7415111351927426E-004   3.7937587124568600E-002
 chl2c          68  0.72496181433536200        3.7855407263856986E-002  0.72590779999999999        2.9614408623067430E-009   8.2373042723269339E-007
 chl          68   6.3372617796998026E-004   8.7415111449831923E-004  0.72496181433536200     
 chl2c          69  0.45512899464701984        2.1732330561541505E-002  0.45524217500000003        2.9614408623067430E-009   2.7106847853556860E-006
 chl          69   3.9786829834055550E-004   8.7418798411014560E-004  0.45512899464701984     
 chl2c          70   3.2658010878182209E-002   3.2658010878182209E-002  0.48694062500000002        2.2029826246247489E-009   9.1122248217973536E-017
 chl          70   2.8549240688366553E-005   8.7418798391788782E-004   3.2658010878182209E-002
 chl2c          71   4.3481058864416305E-002   4.3481058864416305E-002  0.23986107500000001        1.0221040222501990E-009   7.2058605370946432E-017
 chl          71   3.8010619187299093E-005   8.7418798391788782E-004   4.3481058864416305E-002
 chl2c          72   3.7549776402781669E-002   3.7549776402781669E-002  0.62790522500000001        2.9614408623067430E-009   1.5721014471236578E-016
 chl          72   3.2824178859978284E-005   8.7415111365474554E-004   3.7549776402781669E-002
 chl2c          73   3.1852614277819484E-002   3.1852614277819484E-002  0.35362212500000001        2.2029826246247489E-009   7.9645642365508256E-017
 chl          73   2.7845172658041142E-005   8.7418798391788782E-004   3.1852614277819484E-002
 chl2c          74  0.64615243954841250        3.7616827685877569E-002  0.64719590000000005        2.9614408623067430E-009   5.9342770915253532E-007
 chl          74   5.6483487495861571E-004   8.7415111417573764E-004  0.64615243954841250     
 chl2c          75   3.7826830779512356E-002   3.7826830779512356E-002  0.71554212500000003        2.9614408623067430E-009   1.2412198734626883E-016
 chl          75   3.3066366251940334E-005   8.7415111365474554E-004   3.7826830779512356E-002
 chl2c          76  0.55500051520730675        3.7257729557919804E-002  0.55513977500000000        2.9614408623067430E-009   3.2759936846044664E-006
 chl          76   4.8515431895524287E-004   8.7415111456973227E-004  0.55500051520730675     
 chl2c          77  0.47477393622230712        3.7138172437479272E-002  0.52973029999999999        2.9614408623067430E-009   6.7763645751833468E-009
 chl          77   4.1502416501865868E-004   8.7415111351927426E-004  0.47477393622230712     
 chl2c          78  0.45112639551373446        4.7515248899399322E-002  0.45117492500000000        1.0221040222501990E-009   2.1433969141928636E-006
 chl          78   3.9436927421251109E-004   8.7418798397599987E-004  0.45112639551373446     
 prod   3.3634386917822803E-007   9.7784974810818139E-003   10.000000000000000     
 dcdom   7.6529022165303639E-013  -2.9743381885716420E-010
 chl2c           1   3.7477407714772232E-002   3.7477407714772232E-002  0.60826437499999997        3.3104833290539220E-010   1.3896542367761548E-016
 chl           1   3.2406218656475184E-005   8.6468677084359353E-004   3.7477407714772232E-002
 chl2c           2  0.48300340895163979        3.2640259920490348E-002  0.48302390000000001        2.5563340508403172E-010   1.4552655450511679E-006
 chl           2   4.1762741488027988E-004   8.6464693031202680E-004  0.48300340895163979     
 chl2c           3   3.7922212503796585E-002   3.7922212503796585E-002  0.75128689999999998        3.3104833290539220E-010   1.4982753592995532E-016
 chl           3   3.2790835473152415E-005   8.6468677084359353E-004   3.7922212503796585E-002
 chl2c           4  0.77315376750007725        3.7976509103863923E-002  0.77318742499999993        3.3104833290539220E-010   2.9398841356633430E-006
 chl           4   6.6853583458568999E-004   8.6468677084422692E-004  0.77315376750007725     
 chl2c           5  0.48485515236736298        2.5710500362372445E-002  0.48489679999999996        9.1210300005752391E-010   2.5744526090118593E-006
 chl           5   4.1922851914048457E-004   8.6464693031217967E-004  0.48485515236736298     
 chl2c           6   3.1261039902252048E-002   3.1261039902252048E-002  0.29222855000000003        2.5563340508403172E-010   9.8882941572247626E-017
 chl           6   2.7029762189842201E-005   8.6464693031196868E-004   3.1261039902252048E-002
 chl2c           7  0.22770512998035591        4.3064391842467263E-002  0.22770740000000000        1.1888188325505893E-010   1.3577068983948162E-006
 chl           7   1.9688454165380561E-004   8.6464693031198202E-004  0.22770512998035591     
 chl2c           8   4.7969800906495587E-002   4.7969800906495587E-002  0.49578364999999996        1.1888188325505893E-010   6.4175622239774424E-017
 chl           8   4.1476941101477699E-005   8.6464693031196868E-004   4.7969800906495587E-002
 chl2c           9  0.28695852385382065        2.4803669054600401E-002  0.28700202499999999        9.1210300005752391E-010   8.6341040714602257E-007
 chl           9   2.4811780677707224E-004   8.6464693031201184E-004  0.28695852385382065     
 chl2c          10  0.39092447869803704        2.5387016219684602E-002  0.39094662499999999        9.1210300005752391E-010   3.1471903092555465E-006
 chl          10   3.3801165049013321E-004   8.6464693031214487E-004  0.39092447869803704     
 chl2c          11   2.1820572217820047E-002   2.1820572217820047E-002  0.49737575000000001        3.3104833290539220E-010   1.3781270037366936E-016
 chl          11   1.8867090785788728E-005   8.6464693031196868E-004   2.1820572217820047E-002
 chl2c          12   4.5290941298723353E-002   4.5290941298723353E-002  0.30768942500000002        1.1888188325505893E-010   6.3619190886653252E-017
 chl          12   3.9160673364880718E-005   8.6464693031196868E-004   4.5290941298723353E-002
 chl2c          13   3.7935816987997487E-002   3.7935816987997487E-002  0.75666275000000005        3.3104833290539220E-010   1.2466425023881141E-016
 chl          13   3.2802599085619514E-005   8.6468677071059065E-004   3.7935816987997487E-002
 chl2c          14   4.6856526101924839E-002   4.6856526101924839E-002  0.39804095000000000        1.1888188325505893E-010   7.7777391318085074E-017
 chl          14   4.0514351459111948E-005   8.6464693031196868E-004   4.6856526101924839E-002
 chl2c          15  0.25606962315522758        2.0954299823745293E-002  0.25607262500000000        3.3104833290539220E-010   3.6157166950386481E-006
 chl          15   2.2140981360732295E-004   8.6464693031201867E-004  0.25606962315522758     
 chl2c          16   3.7823443882273475E-002   3.7823443882273475E-002  0.71433214999999994        3.3104833290539220E-010   1.5595515579244165E-016
 chl          16   3.2705431552746927E-005   8.6468677084359353E-004   3.7823443882273475E-002
 chl2c          17   3.7542254757581245E-002   3.7542254757581245E-002  0.62580860000000005        3.3104833290539220E-010   1.5587735663335693E-016
 chl          17   3.2462291036520460E-005   8.6468677084359353E-004   3.7542254757581245E-002
 chl2c          18   2.5694475239060960E-002   2.5694475239060960E-002  0.47925950000000000        9.1210300005752391E-010   1.4384093691272953E-016
 chl          18   2.2216649141430945E-005   8.6464693031196868E-004   2.5694475239060960E-002
 chl2c          19  0.63362699564136815        3.7570220750293731E-002  0.63367130000000005        3.3104833290539220E-010   1.5000739365834835E-006
 chl          19   5.4788888078076599E-004   8.6468677084407274E-004  0.63362699564136815     
 chl2c          20   3.7020645196759419E-002   3.7020645196759419E-002  0.50678202500000002        3.3104833290539220E-010   1.3723456205299690E-016
 chl          20   3.2011262144808440E-005   8.6468677071059065E-004   3.7020645196759419E-002
 chl2c          21  0.71960540329065648        3.7838475073783531E-002  0.71973185000000006        3.3104833290539220E-010   6.7798332925257484E-007
 chl          21   6.2223327235748078E-004   8.6468677071085585E-004  0.71960540329065648     
 chl2c          22  0.64614906930086025        3.7613353106285476E-002  0.64616892500000001        3.3104833290539220E-010   3.4806072260747663E-006
 chl          22   5.5871655221770798E-004   8.6468677084414105E-004  0.64614906930086025     
 chl2c          23   3.2286562315070731E-002   3.2286562315070731E-002  0.41564179999999995        2.5563340508403172E-010   8.4643346475448208E-017
 chl          23   2.7916476996051996E-005   8.6464693031196868E-004   3.2286562315070731E-002
 chl2c          24   3.7348402796863071E-002   3.7348402796863071E-002  0.57597492500000003        3.3104833290539220E-010   1.1147228866338260E-016
 chl          24   3.2294669805617918E-005   8.6468677071059065E-004   3.7348402796863071E-002
 chl2c          25   4.5426679235459781E-002   4.5426679235459781E-002  0.31406487500000002        1.1888188325505893E-010   6.6916776910174432E-017
 chl          25   3.9278038755206745E-005   8.6464693031196868E-004   4.5426679235459781E-002
 chl2c          26   4.7955660680174553E-002   4.7955660680174553E-002  0.49427735000000000        1.1888188325505893E-010   6.1418765210521062E-017
 chl          26   4.1464714798195306E-005   8.6464693031196868E-004   4.7955660680174553E-002
 chl2c          27   4.5333133499525620E-002   4.5333133499525620E-002  0.30964730000000001        1.1888188325505893E-010   7.7171190419382443E-017
 chl          27   3.9197154721787504E-005   8.6464693031196868E-004   4.5333133499525620E-002
 chl2c          28   3.1209236063453518E-002   3.1209236063453518E-002  0.28776342500000002        2.5563340508403172E-010   7.6739088557085367E-017
 chl          28   2.6984970159646674E-005   8.6464693031196868E-004   3.1209236063453518E-002
 chl2c          29  0.68673798818911624        3.7743217595736761E-002  0.68676297499999994        3.3104833290539220E-010   3.1242697572516346E-006
 chl          29   5.9381325333193204E-004   8.6468677071116929E-004  0.68673798818911624     
 chl2c          30   2.5380056985171612E-002   2.5380056985171612E-002  0.38930277499999999        9.1210300005752391E-010   1.5764777868360854E-016
 chl          30   2.1944788363371474E-005   8.6464693031196868E-004   2.5380056985171612E-002
 chl2c          31  0.63557296433044153        3.7576959810037038E-002  0.63559385000000002        3.3104833290539220E-010   3.2015339269751448E-006
 chl          31   5.4957153407818955E-004   8.6468677071112983E-004  0.63557296433044153     
 chl2c          32  0.24722391367737812        2.0893126428578448E-002  0.24722667500000001        3.3104833290539220E-010   3.6637857058367289E-006
 chl          32   2.1376139806086802E-004   8.6464693031201682E-004  0.24722391367737812     
 chl2c          33  0.60339790097342572        3.7458922634011876E-002  0.60343137499999999        3.3104833290539220E-010   1.8004668736693934E-006
 chl          33   5.2175018244654786E-004   8.6468677071106727E-004  0.60339790097342572     
 chl2c          34  0.38238170398345189        2.5350269098008315E-002  0.38241020000000003        9.1210300005752391E-010   2.3402179494655685E-006
 chl          34   3.3062516655681638E-004   8.6464693031213825E-004  0.38238170398345189     
 chl2c          35   2.5740370148566064E-002   2.5740370148566064E-002  0.49574644999999995        9.1210300005752391E-010   1.1392487974847231E-016
 chl          35   2.2256332034051480E-005   8.6464693031196868E-004   2.5740370148566064E-002
 chl2c          36   3.7770393924465726E-002   3.7770393924465726E-002  0.69587337500000002        3.3104833290539220E-010   1.1876828590916125E-016
 chl          36   3.2659559956036753E-005   8.6468677084359353E-004   3.7770393924465726E-002
 chl2c          37   2.1353674699533250E-002   2.1353674699533250E-002  0.33194060000000003        3.3104833290539220E-010   1.0433066397532570E-016
 chl          37   1.8463389279831774E-005   8.6464693031196868E-004   2.1353674699533250E-002
 chl2c          38   2.1543295686358745E-002   2.1543295686358745E-002  0.38455722500000000        3.3104833290539220E-010   1.6090984230289937E-016
 chl          38   1.8627344484013167E-005   8.6464693031196868E-004   2.1543295686358745E-002
 chl2c          39   2.5670077108751441E-002   2.5670077108751441E-002  0.47091117500000002        9.1210300005752391E-010   1.2959939056784371E-016
 chl          39   2.2195553372953472E-005   8.6464693031196868E-004   2.5670077108751441E-002
 chl2c          40   3.7687445774703773E-002   3.7687445774703773E-002  0.66875547499999999        3.3104833290539220E-010   1.5625553828641525E-016
 chl          40   3.2587835788271638E-005   8.6468677084359353E-004   3.7687445774703773E-002
 chl2c          41   2.5582381488167241E-002   2.5582381488167241E-002  0.44304987499999998        9.1210300005752391E-010   9.3967811068082674E-017
 chl          41   2.2119727623813536E-005   8.6464693031196868E-004   2.5582381488167241E-002
 chl2c          42   3.7949995630725070E-002   3.7949995630725070E-002  0.76234377499999995        3.3104833290539220E-010   1.3185188036257713E-016
 chl          42   3.2814859170412686E-005   8.6468677071059065E-004   3.7949995630725070E-002
 chl2c          43   2.1185090152268007E-002   2.1185090152268007E-002  0.29539925000000000        3.3104833290539220E-010   1.6022230003614388E-016
 chl          43   1.8317623168540849E-005   8.6464693031196868E-004   2.1185090152268007E-002
 chl2c          44   3.7536352708156646E-002   3.7536352708156646E-002  0.62417262500000004        3.3104833290539220E-010   1.1267502622006559E-016
 chl          44   3.2457187607469705E-005   8.6468677071059065E-004   3.7536352708156646E-002
 chl2c          45  0.37661354965981919        4.6544927192009838E-002  0.37662252499999999        1.1888188325505893E-010   9.3937066576122253E-007
 chl          45   3.2563774962726509E-004   8.6464693031199059E-004  0.37661354965981919     
 chl2c          46  0.51874692684891432        3.7083195475449568E-002  0.51876034999999998        3.3104833290539220E-010   3.3184038804188061E-006
 chl          46   4.4855360499326092E-004   8.6468677071103442E-004  0.51874692684891432     
 chl2c          47   3.7519784612651236E-002   3.7519784612651236E-002  0.61962282499999999        3.3104833290539220E-010   1.4382414633314804E-016
 chl          47   3.2442861394470305E-005   8.6468677071059065E-004   3.7519784612651236E-002
 chl2c          48   3.7823212136301673E-002   3.7823212136301673E-002  0.71424949999999998        3.3104833290539220E-010   1.3832974018269343E-016
 chl          48   3.2705231160040314E-005   8.6468677071059065E-004   3.7823212136301673E-002
 chl2c          49   3.7152990741888416E-002   3.7152990741888416E-002  0.53276120000000005        3.3104833290539220E-010   1.2875182733891762E-016
 chl          49   3.2125699586843969E-005   8.6468677071059065E-004   3.7152990741888416E-002
 chl2c          50  0.38131507982037305        2.1533072915600981E-002  0.38132569999999999        3.3104833290539220E-010   2.2662593242317046E-006
 chl          50   3.2970291324837592E-004   8.6464693031203970E-004  0.38131507982037305     
 chl2c          51   2.0700971146093840E-002   2.0700971146093840E-002  0.22275920000000002        3.3104833290539220E-010   1.7099064135787155E-016
 chl          51   1.7899031155946674E-005   8.6464693031196868E-004   2.0700971146093840E-002
 chl2c          52   3.7581825176985564E-002   3.7581825176985564E-002  0.63698869999999996        3.3104833290539220E-010   1.5304383149593845E-016
 chl          52   3.2496507054696111E-005   8.6468677084359353E-004   3.7581825176985564E-002
 chl2c          53   3.7925801262726190E-002   3.7925801262726190E-002  0.75269794999999995        3.3104833290539220E-010   1.3708756124808449E-016
 chl          53   3.2793938625522592E-005   8.6468677084359353E-004   3.7925801262726190E-002
 chl2c          54   3.7082433371327092E-002   3.7082433371327092E-002  0.51861124999999997        3.3104833290539220E-010   1.1249433135987463E-016
 chl          54   3.2064689561943465E-005   8.6468677071059065E-004   3.7082433371327092E-002
 chl2c          55  0.57806692260765646        3.7357235588660491E-002  0.57808280000000001        3.3104833290539220E-010   3.4837774208610740E-006
 chl          55   4.9984682056450802E-004   8.6468677071108310E-004  0.57806692260765646     
 chl2c          56   3.7507394187257688E-002   3.7507394187257688E-002  0.61626080000000005        3.3104833290539220E-010   1.5344739538477850E-016
 chl          56   3.2432147562537619E-005   8.6468677084359353E-004   3.7507394187257688E-002
 chl2c          57  0.68161022326758214        3.7727617852646313E-002  0.68163462500000005        3.3104833290539220E-010   3.1515811039983683E-006
 chl          57   5.8937934284096374E-004   8.6468677071116788E-004  0.68161022326758214     
 chl2c          58  0.69411218407499609        3.7765358178394853E-002  0.69416802499999997        3.3104833290539220E-010   1.4282462051165572E-006
 chl          58   6.0018962305134174E-004   8.6468677084408250E-004  0.69411218407499609     
 chl2c          59   3.7173699120809672E-002   3.7173699120809672E-002  0.53705127500000005        3.3104833290539220E-010   1.5608468714368879E-016
 chl          59   3.2143605848140042E-005   8.6468677071059065E-004   3.7173699120809672E-002
 chl2c          60  0.64442741993949104        3.7607757740906807E-002  0.64452155000000000        3.3104833290539220E-010   7.3037268974496607E-007
 chl          60   5.5722786470504919E-004   8.6468677071092123E-004  0.64442741993949104     
 chl2c          61   3.7805373434125003E-002   3.7805373434125003E-002  0.70794139999999994        3.3104833290539220E-010   1.3417291455829401E-016
 chl          61   3.2689806270261505E-005   8.6468677071059065E-004   3.7805373434125003E-002
 chl2c          62   3.7956103087269030E-002   3.7956103087269030E-002  0.76481592499999995        3.3104833290539220E-010   1.0954339612810815E-016
 chl          62   3.2820140207288936E-005   8.6468677071059065E-004   3.7956103087269030E-002
 chl2c          63  0.72593714658554731        3.7855601011927406E-002  0.72597904999999996        3.3104833290539220E-010   2.0817813109631200E-006
 chl          63   6.2770824711689058E-004   8.6468677084417379E-004  0.72593714658554731     
 chl2c          64   2.5708982294816416E-002   2.5708982294816416E-002  0.48435739999999999        9.1210300005752391E-010   9.1431148577715482E-017
 chl          64   2.2229192622657767E-005   8.6464693031196868E-004   2.5708982294816416E-002
 chl2c          65   3.7953597170552002E-002   3.7953597170552002E-002  0.76379975000000000        3.3104833290539220E-010   1.2101493998707833E-016
 chl          65   3.2817973379303159E-005   8.6468677084359353E-004   3.7953597170552002E-002
 chl2c          66   3.1840477731474713E-002   3.1840477731474713E-002  0.35213202499999996        2.5563340508403172E-010   6.6567594219177037E-017
 chl          66   2.7530771330186207E-005   8.6464693031196868E-004   3.1840477731474713E-002
 chl2c          67   3.7937587124568600E-002   3.7937587124568600E-002  0.75736760000000003        3.3104833290539220E-010   1.2802107602411196E-016
 chl          67   3.2804129699294903E-005   8.6468677071059065E-004   3.7937587124568600E-002
 chl2c          68  0.72582963865701955        3.7855407263856986E-002  0.72590779999999999        3.3104833290539220E-010   1.1157979468100593E-006
 chl          68   6.2761528643322695E-004   8.6468677084402938E-004  0.72582963865701955     
 chl2c          69  0.45522901943335820        2.1732330561541505E-002  0.45524217500000003        3.3104833290539220E-010   2.6074997736018037E-006
 chl          69   3.9361237424202002E-004   8.6464693031205510E-004  0.45522901943335820     
 chl2c          70   3.2658010878182209E-002   3.2658010878182209E-002  0.48694062500000002        2.5563340508403172E-010   9.2713710083565889E-017
 chl          70   2.8237648855915128E-005   8.6464693031196868E-004   3.2658010878182209E-002
 chl2c          71   4.3481058864416305E-002   4.3481058864416305E-002  0.23986107500000001        1.1888188325505893E-010   7.3395574703103412E-017
 chl          71   3.7595764073831571E-005   8.6464693031196868E-004   4.3481058864416305E-002
 chl2c          72   3.7549776402781669E-002   3.7549776402781669E-002  0.62790522500000001        3.3104833290539220E-010   1.5393046101336693E-016
 chl          72   3.2468794903620251E-005   8.6468677084359353E-004   3.7549776402781669E-002
 chl2c          73   3.1852614277819484E-002   3.1852614277819484E-002  0.35362212500000001        2.5563340508403172E-010   8.1099551654082482E-017
 chl          73   2.7541265157727802E-005   8.6464693031196868E-004   3.1852614277819484E-002
 chl2c          74  0.64711339699560755        3.7616827685877569E-002  0.64719590000000005        3.3104833290539220E-010   8.4024859308484094E-007
 chl          74   5.5955039353191183E-004   8.6468677071092979E-004  0.64711339699560755     
 chl2c          75   3.7826830779512356E-002   3.7826830779512356E-002  0.71554212500000003        3.3104833290539220E-010   1.2142527418013079E-016
 chl          75   3.2708360157983589E-005   8.6468677084359353E-004   3.7826830779512356E-002
 chl2c          76  0.55512357792452982        3.7257729557919804E-002  0.55513977500000000        3.3104833290539220E-010   3.1493202264379228E-006
 chl          76   4.8000801401496592E-004   8.6468677084406602E-004  0.55512357792452982     
 chl2c          77  0.52941466762145972        3.7138172437479272E-002  0.52973029999999999        3.3104833290539220E-010   1.4707221922245217E-007
 chl          77   4.5777785931242068E-004   8.6468677071059065E-004  0.52941466762145972     
 chl2c          78  0.45116902028563022        4.7515248899399322E-002  0.45117492500000000        1.1888188325505893E-010   2.0491370803825940E-006
 chl          78   3.9010190844184032E-004   8.6464693031199492E-004  0.45116902028563022     
 prod   3.4354307582333895E-007   1.1282960717873805E-003   10.000000000000000     
 dcdom   8.5724922147522818E-013  -2.9500849222765322E-010
 chl2c           1   3.7477407714772232E-002   3.7477407714772232E-002  0.60826437499999997        3.7926366310296891E-011   1.3513058028569779E-016
 chl           1   3.2044778009788416E-005   8.5504254332824435E-004   3.7477407714772232E-002
 chl2c           2  0.48302144891926313        3.2640259920490348E-002  0.48302390000000001        3.0004932456553405E-011   1.4280390302469663E-006
 chl           2   4.1298439620131782E-004   8.5500218908570250E-004  0.48302144891926313     
 chl2c           3   3.7922212503796585E-002   3.7922212503796585E-002  0.75128689999999998        3.7926366310296891E-011   1.4574389163907608E-016
 chl           3   3.2425105027880384E-005   8.5504254332824435E-004   3.7922212503796585E-002
 chl2c           4  0.77318366901384150        3.7976509103863923E-002  0.77318742499999993        3.7926366310296891E-011   3.0182465373687286E-006
 chl           4   6.6110493081345879E-004   8.5504254332824468E-004  0.77318366901384150     
 chl2c           5  0.48489171413849452        2.5710500362372445E-002  0.48489679999999996        1.0479267105384051E-010   2.4223141488880490E-006
 chl           5   4.1458347705793151E-004   8.5500218908570250E-004  0.48489171413849452     
 chl2c           6   3.1261039902252048E-002   3.1261039902252048E-002  0.29222855000000003        3.0004932456553405E-011   1.0057970676675748E-016
 chl           6   2.6728257549520992E-005   8.5500218908570239E-004   3.1261039902252048E-002
 chl2c           7  0.22770714033594824        4.3064391842467263E-002  0.22770740000000000        1.3997091301305877E-011   1.3974933952949735E-006
 chl           7   1.9469010345768100E-004   8.5500218908570239E-004  0.22770714033594824     
 chl2c           8   4.7969800906495587E-002   4.7969800906495587E-002  0.49578364999999996        1.3997091301305877E-011   6.5381747161290400E-017
 chl           8   4.1014284785059037E-005   8.5500218908570239E-004   4.7969800906495587E-002
 chl2c           9  0.28699858151185592        2.4803669054600401E-002  0.28700202499999999        1.0479267105384051E-010   1.2533346133052148E-006
 chl           9   2.4538441545712819E-004   8.5500218908570239E-004  0.28699858151185592     
 chl2c          10  0.39094395564616485        2.5387016219684602E-002  0.39094662499999999        1.0479267105384051E-010   3.0000378939346570E-006
 chl          10   3.3425793788729476E-004   8.5500218908570250E-004  0.39094395564616485     
 chl2c          11   2.1820572217820047E-002   2.1820572217820047E-002  0.49737575000000001        3.7926366310296891E-011   1.3444094494713693E-016
 chl          11   1.8656637013338798E-005   8.5500218908570239E-004   2.1820572217820047E-002
 chl2c          12   4.5290941298723353E-002   4.5290941298723353E-002  0.30768942500000002        1.3997091301305877E-011   6.4816250087268498E-017
 chl          12   3.8723853956160513E-005   8.5500218908570239E-004   4.5290941298723353E-002
 chl2c          13   3.7935816987997487E-002   3.7935816987997487E-002  0.75666275000000005        3.7926366310296891E-011   1.2116791937593920E-016
 chl          13   3.2436737435700679E-005   8.5504254319772094E-004   3.7935816987997487E-002
 chl2c          14   4.6856526101924839E-002   4.6856526101924839E-002  0.39804095000000000        1.3997091301305877E-011   7.9160346569309879E-017
 chl          14   4.0062432390097092E-005   8.5500218908570239E-004   4.6856526101924839E-002
 chl2c          15  0.25607226515507336        2.0954299823745293E-002  0.25607262500000000        3.7926366310296891E-011   3.4555847781110516E-006
 chl          15   2.1894234727172217E-004   8.5500218908570239E-004  0.25607226515507336     
 chl2c          16   3.7823443882273475E-002   3.7823443882273475E-002  0.71433214999999994        3.7926366310296891E-011   1.5173429575155646E-016
 chl          16   3.2340653654532233E-005   8.5504254332824435E-004   3.7823443882273475E-002
 chl2c          17   3.7542254757581245E-002   3.7542254757581245E-002  0.62580860000000005        3.7926366310296891E-011   1.5165822461434526E-016
 chl          17   3.2100224990199148E-005   8.5504254332824435E-004   3.7542254757581245E-002
 chl2c          18   2.5694475239060960E-002   2.5694475239060960E-002  0.47925950000000000        1.0479267105384051E-010   1.4036683811818619E-016
 chl          18   2.1968832576805496E-005   8.5500218908570239E-004   2.5694475239060960E-002
 chl2c          19  0.63366673706688548        3.7570220750293731E-002  0.63367130000000005        3.7926366310296891E-011   1.6687530981473006E-006
 chl          19   5.4181201848417981E-004   8.5504254332824457E-004  0.63366673706688548     
 chl2c          20   3.7020645196759419E-002   3.7020645196759419E-002  0.50678202500000002        3.7926366310296891E-011   1.3344002519216297E-016
 chl          20   3.1654226619857664E-005   8.5504254319772094E-004   3.7020645196759419E-002
 chl2c          21  0.71972139520341083        3.7838475073783531E-002  0.71973185000000006        3.7926366310296891E-011   9.3957356016262533E-007
 chl          21   6.1539241214853652E-004   8.5504254319772115E-004  0.71972139520341083     
 chl2c          22  0.64616656399250860        3.7613353106285476E-002  0.64616892500000001        3.7926366310296891E-011   3.3535472110419192E-006
 chl          22   5.5249990228982751E-004   8.5504254332824468E-004  0.64616656399250860     
 chl2c          23   3.2286562315070731E-002   3.2286562315070731E-002  0.41564179999999995        3.0004932456553405E-011   8.6166079233566219E-017
 chl          23   2.7605081457437418E-005   8.5500218908570239E-004   3.2286562315070731E-002
 chl2c          24   3.7348402796863071E-002   3.7348402796863071E-002  0.57597492500000003        3.7926366310296891E-011   1.0829934375540824E-016
 chl          24   3.1934473311802677E-005   8.5504254319772094E-004   3.7348402796863071E-002
 chl2c          25   4.5426679235459781E-002   4.5426679235459781E-002  0.31406487500000002        1.3997091301305877E-011   6.8167207900356342E-017
 chl          25   3.8839910189212132E-005   8.5500218908570239E-004   4.5426679235459781E-002
 chl2c          26   4.7955660680174553E-002   4.7955660680174553E-002  0.49427735000000000        1.3997091301305877E-011   6.2579735765652811E-017
 chl          26   4.1002194860600384E-005   8.5500218908570239E-004   4.7955660680174553E-002
 chl2c          27   4.5333133499525620E-002   4.5333133499525620E-002  0.30964730000000001        1.3997091301305877E-011   7.8544755435728760E-017
 chl          27   3.8759928380208795E-005   8.5500218908570239E-004   4.5333133499525620E-002
 chl2c          28   3.1209236063453518E-002   3.1209236063453518E-002  0.28776342500000002        3.0004932456553405E-011   7.8105947228071416E-017
 chl          28   2.6683965153945207E-005   8.5500218908570239E-004   3.1209236063453518E-002
 chl2c          29  0.68675996268830286        3.7743217595736761E-002  0.68676297499999994        3.7926366310296891E-011   2.9690887068554622E-006
 chl          29   5.8720898506337861E-004   8.5504254319772126E-004  0.68675996268830286     
 chl2c          30   2.5380056985171612E-002   2.5380056985171612E-002  0.38930277499999999        1.0479267105384051E-010   1.5395248311139633E-016
 chl          30   2.1700004281441601E-005   8.5500218908570239E-004   2.5380056985171612E-002
 chl2c          31  0.63559125404997985        3.7576959810037038E-002  0.63559385000000002        3.7926366310296891E-011   2.9510224391549015E-006
 chl          31   5.4345756229712370E-004   8.5504254319772126E-004  0.63559125404997985     
 chl2c          32  0.24722635069248558        2.0893126428578448E-002  0.24722667500000001        3.7926366310296891E-011   3.5739157817326862E-006
 chl          32   2.1137907104174474E-004   8.5500218908570239E-004  0.24722635069248558     
 chl2c          33  0.60342781238615439        3.7458922634011876E-002  0.60343137499999999        3.7926366310296891E-011   1.9381871003667472E-006
 chl          33   5.1595645133889489E-004   8.5504254319772126E-004  0.60342781238615439     
 chl2c          34  0.38240652643359213        2.5350269098008315E-002  0.38241020000000003        1.0479267105384051E-010   2.0857765611134249E-006
 chl          34   3.2695841722138084E-004   8.5500218908570250E-004  0.38240652643359213     
 chl2c          35   2.5740370148566064E-002   2.5740370148566064E-002  0.49574644999999995        1.0479267105384051E-010   1.1099393409386274E-016
 chl          35   2.2008072824900251E-005   8.5500218908570239E-004   2.5740370148566064E-002
 chl2c          36   3.7770393924465726E-002   3.7770393924465726E-002  0.69587337500000002        3.7926366310296891E-011   1.1541516151568359E-016
 chl          36   3.2295293683684842E-005   8.5504254332824435E-004   3.7770393924465726E-002
 chl2c          37   2.1353674699533250E-002   2.1353674699533250E-002  0.33194060000000003        3.7926366310296891E-011   1.0159292944852304E-016
 chl          37   1.8257438613124907E-005   8.5500218908570239E-004   2.1353674699533250E-002
 chl2c          38   2.1543295686358745E-002   2.1543295686358745E-002  0.38455722500000000        3.7926366310296891E-011   1.5716493758074151E-016
 chl          38   1.8419564971957297E-005   8.5500218908570239E-004   2.1543295686358745E-002
 chl2c          39   2.5670077108751441E-002   2.5670077108751441E-002  0.47091117500000002        1.0479267105384051E-010   1.2637280006034318E-016
 chl          39   2.1947972121981259E-005   8.5500218908570239E-004   2.5670077108751441E-002
 chl2c          40   3.7687445774703773E-002   3.7687445774703773E-002  0.66875547499999999        3.7926366310296891E-011   1.5202800976014957E-016
 chl          40   3.2224369486748010E-005   8.5504254332824435E-004   3.7687445774703773E-002
 chl2c          41   2.5582381488167241E-002   2.5582381488167241E-002  0.44304987499999998        1.0479267105384051E-010   9.1449396402243496E-017
 chl          41   2.1872992174408539E-005   8.5500218908570239E-004   2.5582381488167241E-002
 chl2c          42   3.7949995630725070E-002   3.7949995630725070E-002  0.76234377499999995        3.7926366310296891E-011   1.2818385532428865E-016
 chl          42   3.2448860778437560E-005   8.5504254319772094E-004   3.7949995630725070E-002
 chl2c          43   2.1185090152268007E-002   2.1185090152268007E-002  0.29539925000000000        3.7926366310296891E-011   1.5648776784800280E-016
 chl          43   1.8113298456167103E-005   8.5500218908570239E-004   2.1185090152268007E-002
 chl2c          44   3.7536352708156646E-002   3.7536352708156646E-002  0.62417262500000004        3.7926366310296891E-011   1.0947215228962257E-016
 chl          44   3.2095178481948917E-005   8.5504254319772094E-004   3.7536352708156646E-002
 chl2c          45  0.37662102885946491        4.6544927192009838E-002  0.37662252499999999        1.3997091301305877E-011   6.6350815717470417E-007
 chl          45   3.2201180413055200E-004   8.5500218908570239E-004  0.37662102885946491     
 chl2c          46  0.51875871680286645        3.7083195475449568E-002  0.51876034999999998        3.7926366310296891E-011   3.1246747115237482E-006
 chl          46   4.4356077252110933E-004   8.5504254319772115E-004  0.51875871680286645     
 chl2c          47   3.7519784612651236E-002   3.7519784612651236E-002  0.61962282499999999        3.7926366310296891E-011   1.3987712961039495E-016
 chl          47   3.2081012055432031E-005   8.5504254319772094E-004   3.7519784612651236E-002
 chl2c          48   3.7823212136301673E-002   3.7823212136301673E-002  0.71424949999999998        3.7926366310296891E-011   1.3450967878015603E-016
 chl          48   3.2340455496930286E-005   8.5504254319772094E-004   3.7823212136301673E-002
 chl2c          49   3.7152990741888416E-002   3.7152990741888416E-002  0.53276120000000005        3.7926366310296891E-011   1.2515746680861625E-016
 chl          49   3.1767387691345650E-005   8.5504254319772094E-004   3.7152990741888416E-002
 chl2c          50  0.38132454513926012        2.1533072915600981E-002  0.38132569999999999        3.7926366310296891E-011   2.3876598646716867E-006
 chl          50   3.2603332084617720E-004   8.5500218908570250E-004  0.38132454513926012     
 chl2c          51   2.0700971146093840E-002   2.0700971146093840E-002  0.22275920000000002        3.7926366310296891E-011   1.6709873888334254E-016
 chl          51   1.7699375646110197E-005   8.5500218908570239E-004   2.0700971146093840E-002
 chl2c          52   3.7581825176985564E-002   3.7581825176985564E-002  0.63698869999999996        3.7926366310296891E-011   1.4888788332706867E-016
 chl          52   3.2134059382247181E-005   8.5504254332824435E-004   3.7581825176985564E-002
 chl2c          53   3.7925801262726190E-002   3.7925801262726190E-002  0.75269794999999995        3.7926366310296891E-011   1.3329645598258467E-016
 chl          53   3.2428173569442946E-005   8.5504254332824435E-004   3.7925801262726190E-002
 chl2c          54   3.7082433371327092E-002   3.7082433371327092E-002  0.51861124999999997        3.7926366310296891E-011   1.0929594813620327E-016
 chl          54   3.1707058137779557E-005   8.5504254319772094E-004   3.7082433371327092E-002
 chl2c          55  0.57808090417376479        3.7357235588660491E-002  0.57808280000000001        3.7926366310296891E-011   3.3426536704319115E-006
 chl          55   4.9428376647877410E-004   8.5504254319772126E-004  0.57808090417376479     
 chl2c          56   3.7507394187257688E-002   3.7507394187257688E-002  0.61626080000000005        3.7926366310296891E-011   1.4928241883348859E-016
 chl          56   3.2070417719487821E-005   8.5504254332824435E-004   3.7507394187257688E-002
 chl2c          57  0.68163148467749302        3.7727617852646313E-002  0.68163462500000005        3.7926366310296891E-011   2.8056808853197703E-006
 chl          57   5.8282391818228216E-004   8.5504254319772126E-004  0.68163148467749302     
 chl2c          58  0.69416268137408133        3.7765358178394853E-002  0.69416802499999997        3.7926366310296891E-011   1.7100194856094125E-006
 chl          58   5.9353862456564834E-004   8.5504254332824457E-004  0.69416268137408133     
 chl2c          59   3.7173699120809672E-002   3.7173699120809672E-002  0.53705127500000005        3.7926366310296891E-011   1.5186095084593693E-016
 chl          59   3.1785094236323987E-005   8.5504254319772094E-004   3.7173699120809672E-002
 chl2c          60  0.64451328412436792        3.7607757740906807E-002  0.64452155000000000        3.7926366310296891E-011   9.5299734118886824E-007
 chl          60   5.5108627758241496E-004   8.5504254319772115E-004  0.64451328412436792     
 chl2c          61   3.7805373434125003E-002   3.7805373434125003E-002  0.70794139999999994        3.7926366310296891E-011   1.3045012055749430E-016
 chl          61   3.2325202647653798E-005   8.5504254319772094E-004   3.7805373434125003E-002
 chl2c          62   3.7956103087269030E-002   3.7956103087269030E-002  0.76481592499999995        3.7926366310296891E-011   1.0641863714678409E-016
 chl          62   3.2454082913613378E-005   8.5504254319772094E-004   3.7956103087269030E-002
 chl2c          63  0.72597436694310880        3.7855601011927406E-002  0.72597904999999996        3.7926366310296891E-011   2.1341610075350660E-006
 chl          63   6.2073896910214805E-004   8.5504254332824468E-004  0.72597436694310880     
 chl2c          64   2.5708982294816416E-002   2.5708982294816416E-002  0.48435739999999999        1.0479267105384051E-010   8.8968119449190186E-017
 chl          64   2.1981236141233600E-005   8.5500218908570239E-004   2.5708982294816416E-002
 chl2c          65   3.7953597170552002E-002   3.7953597170552002E-002  0.76379975000000000        3.7926366310296891E-011   1.1760699462105740E-016
 chl          65   3.2451940253164442E-005   8.5504254332824435E-004   3.7953597170552002E-002
 chl2c          66   3.1840477731474713E-002   3.1840477731474713E-002  0.35213202499999996        3.0004932456553405E-011   6.7812414022467043E-017
 chl          66   2.7223678161945440E-005   8.5500218908570239E-004   3.1840477731474713E-002
 chl2c          67   3.7937587124568600E-002   3.7937587124568600E-002  0.75736760000000003        3.7926366310296891E-011   1.2444416546780090E-016
 chl          67   3.2438250977776251E-005   8.5504254319772094E-004   3.7937587124568600E-002
 chl2c          68  0.72590081060325740        3.7855407263856986E-002  0.72590779999999999        3.7926366310296891E-011   1.4296518507386558E-006
 chl          68   6.2067607530224352E-004   8.5504254332824457E-004  0.72590081060325740     
 chl2c          69  0.45524059364327008        2.1732330561541505E-002  0.45524217500000003        3.7926366310296891E-011   2.4852201093035960E-006
 chl          69   3.8923170412567067E-004   8.5500218908570250E-004  0.45524059364327008     
 chl2c          70   3.2658010878182209E-002   3.2658010878182209E-002  0.48694062500000002        3.0004932456553405E-011   9.4321369958402191E-017
 chl          70   2.7922670792030471E-005   8.5500218908570239E-004   3.2658010878182209E-002
 chl2c          71   4.3481058864416305E-002   4.3481058864416305E-002  0.23986107500000001        1.3997091301305877E-011   7.4748382550409299E-017
 chl          71   3.7176400512840223E-005   8.5500218908570239E-004   4.3481058864416305E-002
 chl2c          72   3.7549776402781669E-002   3.7549776402781669E-002  0.62790522500000001        3.7926366310296891E-011   1.4975469036192972E-016
 chl          72   3.2106656316841336E-005   8.5504254332824435E-004   3.7549776402781669E-002
 chl2c          73   3.1852614277819484E-002   3.1852614277819484E-002  0.35362212500000001        3.0004932456553405E-011   8.2569815670147089E-017
 chl          73   2.7234054935638158E-005   8.5500218908570239E-004   3.1852614277819484E-002
 chl2c          74  0.64718875759988115        3.7616827685877569E-002  0.64719590000000005        3.7926366310296891E-011   1.1120742522881381E-006
 chl          74   5.5337392122717583E-004   8.5504254319772115E-004  0.64718875759988115     
 chl2c          75   3.7826830779512356E-002   3.7826830779512356E-002  0.71554212500000003        3.7926366310296891E-011   1.1800734974897273E-016
 chl          75   3.2343549595761362E-005   8.5504254332824435E-004   3.7826830779512356E-002
 chl2c          76  0.55513782599559280        3.7257729557919804E-002  0.55513977500000000        3.7926366310296891E-011   2.9984829511407505E-006
 chl          76   4.7466645863698413E-004   8.5504254332824457E-004  0.55513782599559280     
 chl2c          77  0.52971410264526697        3.7138172437479272E-002  0.52973029999999999        3.7926366310296891E-011   3.2852127240158625E-007
 chl          77   4.5292809349350765E-004   8.5504254319772094E-004  0.52971410264526697     
 chl2c          78  0.45117417078950878        4.7515248899399322E-002  0.45117492500000000        1.3997091301305877E-011   1.8888801998700006E-006
 chl          78   3.8575490368395658E-004   8.5500218908570239E-004  0.45117417078950878     
 prod   3.5086869721747116E-007   1.3216964890123343E-004   10.000000000000000     
 dcdom   9.5216052242160326E-013  -2.9407893909649452E-010
 chl2c           1   3.7477407714772232E-002   3.7477407714772232E-002  0.60826437499999997        4.5214703048403870E-012   1.4033757621627139E-016
 chl           1   2.8784522818161838E-005   7.6804999527264601E-004   3.7477407714772232E-002
 chl2c           2  0.48302363534248993        3.2640259920490348E-002  0.48302390000000001        3.6336610280162683E-012   1.6016484409482187E-006
 chl           2   3.7080999524093301E-004   7.6768499118683631E-004  0.48302363534248993     
 chl2c           3   3.7922212503796585E-002   3.7922212503796585E-002  0.75128689999999998        4.5214703048403870E-012   1.5137244959332414E-016
 chl           3   2.9126155134269243E-005   7.6804999527264601E-004   3.7922212503796585E-002
 chl2c           4  0.77318700800192552        3.7976509103863923E-002  0.77318742499999993        4.5214703048403870E-012   3.2410443043662072E-006
 chl           4   5.9384627784075017E-004   7.6804999527264601E-004  0.77318700800192552     
 chl2c           5  0.48489618873922752        2.5710500362372445E-002  0.48489679999999996        1.2470639236641320E-011   2.3984478657804982E-006
 chl           5   3.7224752637880440E-004   7.6768499118683631E-004  0.48489618873922752     
 chl2c           6   3.1261039902252048E-002   3.1261039902252048E-002  0.29222855000000003        3.6336610280162683E-012   1.2121027566061209E-016
 chl           6   2.3998631141851702E-005   7.6768499118683631E-004   3.1261039902252048E-002
 chl2c           7  0.22770737320529547        4.3064391842467263E-002  0.22770740000000000        1.7002361197629041E-012   1.6450704727519986E-006
 chl           7   1.7480753279228490E-004   7.6768499118683631E-004  0.22770737320529547     
 chl2c           8  0.49577957546937884        4.7969800906495587E-002  0.49578364999999996        1.7002361197629041E-012   5.1284070455001483E-008
 chl           8   3.8060253902482354E-004   7.6768499118683631E-004  0.49577957546937884     
 chl2c           9  0.28700172445058758        2.4803669054600401E-002  0.28700202499999999        1.2470639236641320E-011   1.7088828998378070E-006
 chl           9   2.2032691630545614E-004   7.6768499118683631E-004  0.28700172445058758     
 chl2c          10  0.39094631094137927        2.5387016219684602E-002  0.39094662499999999        1.2470639236641320E-011   3.0344681861865505E-006
 chl          10   3.0012361526955889E-004   7.6768499118683631E-004  0.39094631094137927     
 chl2c          11   2.1820572217820047E-002   2.1820572217820047E-002  0.49737575000000001        4.5214703048403870E-012   1.3971219004573767E-016
 chl          11   1.6751325790728907E-005   7.6768499118683631E-004   2.1820572217820047E-002
 chl2c          12   4.5290941298723353E-002   4.5290941298723353E-002  0.30768942500000002        1.7002361197629041E-012   7.6592486685172924E-017
 chl          12   3.4769175871753960E-005   7.6768499118683631E-004   4.5290941298723353E-002
 chl2c          13   3.7935816987997487E-002   3.7935816987997487E-002  0.75666275000000005        4.5214703048403870E-012   1.2582248313126914E-016
 chl          13   2.9136604054183846E-005   7.6804999516426331E-004   3.7935816987997487E-002
 chl2c          14   4.6856526101924839E-002   4.6856526101924839E-002  0.39804095000000000        1.7002361197629041E-012   9.5905062751867920E-017
 chl          14   3.5971051827601935E-005   7.6768499118683631E-004   4.6856526101924839E-002
 chl2c          15  0.25607258278098666        2.0954299823745293E-002  0.25607262500000000        4.5214703048403870E-012   3.5112992426107770E-006
 chl          15   1.9658307845541215E-004   7.6768499118683631E-004  0.25607258278098666     
 chl2c          16   3.7823443882273475E-002   3.7823443882273475E-002  0.71433214999999994        4.5214703048403870E-012   1.5760137322794828E-016
 chl          16   2.9050295894975336E-005   7.6804999527264601E-004   3.7823443882273475E-002
 chl2c          17   3.7542254757581245E-002   3.7542254757581245E-002  0.62580860000000005        4.5214703048403870E-012   1.5752227066647575E-016
 chl          17   2.8834328589084746E-005   7.6804999527264601E-004   3.7542254757581245E-002
 chl2c          18   2.5694475239060960E-002   2.5694475239060960E-002  0.47925950000000000        1.2470639236641320E-011   1.4587766469218644E-016
 chl          18   1.9725262997448897E-005   7.6768499118683631E-004   2.5694475239060960E-002
 chl2c          19  0.63367082544518039        3.7570220750293731E-002  0.63367130000000005        4.5214703048403870E-012   1.9128946337092027E-006
 chl          19   4.8669087448758447E-004   7.6804999527264601E-004  0.63367082544518039     
 chl2c          20   3.7020645196759419E-002   3.7020645196759419E-002  0.50678202500000002        4.5214703048403870E-012   1.3857999937879464E-016
 chl          20   2.8433706364348981E-005   7.6804999516426331E-004   3.7020645196759419E-002
 chl2c          21  0.71973092652147908        3.7838475073783531E-002  0.71973185000000006        4.5214703048403870E-012   1.2681299945488148E-006
 chl          21   5.5278933463439271E-004   7.6804999516426331E-004  0.71973092652147908     
 chl2c          22  0.64616864994434220        3.7613353106285476E-002  0.64616892500000001        4.5214703048403870E-012   3.4317927827693289E-006
 chl          22   4.9628982853508409E-004   7.6804999527264601E-004  0.64616864994434220     
 chl2c          23   3.2286562315070731E-002   3.2286562315070731E-002  0.41564179999999995        3.6336610280162683E-012   1.0101558958798452E-016
 chl          23   2.4785909306298315E-005   7.6768499118683631E-004   3.2286562315070731E-002
 chl2c          24   3.7348402796863071E-002   3.7348402796863071E-002  0.57597492500000003        4.5214703048403870E-012   1.1244714434287194E-016
 chl          24   2.8685440587523639E-005   7.6804999516426331E-004   3.7348402796863071E-002
 chl2c          25   4.5426679235459781E-002   4.5426679235459781E-002  0.31406487500000002        1.7002361197629041E-012   8.0451553085247829E-017
 chl          25   3.4873379848521184E-005   7.6768499118683631E-004   4.5426679235459781E-002
 chl2c          26   4.7955660680174553E-002   4.7955660680174553E-002  0.49427735000000000        1.7002361197629041E-012   7.4011466893732033E-017
 chl          26   3.6814840946618714E-005   7.6768499118683631E-004   4.7955660680174553E-002
 chl2c          27   4.5333133499525620E-002   4.5333133499525620E-002  0.30964730000000001        1.7002361197629041E-012   9.5173952937285954E-017
 chl          27   3.4801566191054999E-005   7.6768499118683631E-004   4.5333133499525620E-002
 chl2c          28   3.1209236063453518E-002   3.1209236063453518E-002  0.28776342500000002        3.6336610280162683E-012   9.4652667139952403E-017
 chl          28   2.3958862112320209E-005   7.6768499118683631E-004   3.1209236063453518E-002
 chl2c          29  0.68676262040875535        3.7743217595736761E-002  0.68676297499999994        4.5214703048403870E-012   3.0070122800613043E-006
 chl          29   5.2746802728394139E-004   7.6804999516426331E-004  0.68676262040875535     
 chl2c          30   2.5380056985171612E-002   2.5380056985171612E-002  0.38930277499999999        1.2470639236641320E-011   1.6001279553133182E-016
 chl          30   1.9483888822982872E-005   7.6768499118683631E-004   2.5380056985171612E-002
 chl2c          31  0.63559353096321392        3.7576959810037038E-002  0.63559385000000002        4.5214703048403870E-012   2.8626488638833607E-006
 chl          31   4.8816760838273348E-004   7.6804999516426331E-004  0.63559353096321392     
 chl2c          32  0.24722663735384412        2.0893126428578448E-002  0.24722667500000001        4.5214703048403870E-012   3.6704527761200555E-006
 chl          32   1.8979217891813699E-004   7.6768499118683631E-004  0.24722663735384412     
 chl2c          33  0.60343099452503846        3.7458922634011876E-002  0.60343137499999999        4.5214703048403870E-012   2.1636106284740076E-006
 chl          33   4.6346517242692239E-004   7.6804999516426331E-004  0.60343099452503846     
 chl2c          34  0.38240972279663521        2.5350269098008315E-002  0.38241020000000003        1.2470639236641320E-011   1.9107928880046807E-006
 chl          34   2.9357020467489541E-004   7.6768499118683631E-004  0.38240972279663521     
 chl2c          35   2.5740370148566064E-002   2.5740370148566064E-002  0.49574644999999995        1.2470639236641320E-011   1.1531939400862571E-016
 chl          35   1.9760495830647845E-005   7.6768499118683631E-004   2.5740370148566064E-002
 chl2c          36   3.7770393924465726E-002   3.7770393924465726E-002  0.69587337500000002        4.5214703048403870E-012   1.1984288743349468E-016
 chl          36   2.9009550875131877E-005   7.6804999527264601E-004   3.7770393924465726E-002
 chl2c          37   2.1353674699533250E-002   2.1353674699533250E-002  0.33194060000000003        4.5214703048403870E-012   1.0554077949318638E-016
 chl          37   1.6392895573517752E-005   7.6768499118683631E-004   2.1353674699533250E-002
 chl2c          38   2.1543295686358745E-002   2.1543295686358745E-002  0.38455722500000000        4.5214703048403870E-012   1.6335515959384243E-016
 chl          38   1.6538464759117723E-005   7.6768499118683631E-004   2.1543295686358745E-002
 chl2c          39   2.5670077108751441E-002   2.5670077108751441E-002  0.47091117500000002        1.2470639236641320E-011   1.3131811671415903E-016
 chl          39   1.9706532918997259E-005   7.6768499118683631E-004   2.5670077108751441E-002
 chl2c          40   3.7687445774703773E-002   3.7687445774703773E-002  0.66875547499999999        4.5214703048403870E-012   1.5790679229278842E-016
 chl          40   2.8945842549099335E-005   7.6804999527264601E-004   3.7687445774703773E-002
 chl2c          41   2.5582381488167241E-002   2.5582381488167241E-002  0.44304987499999998        1.2470639236641320E-011   9.4991275391421684E-017
 chl          41   1.9639210307281951E-005   7.6768499118683631E-004   2.5582381488167241E-002
 chl2c          42   3.7949995630725070E-002   3.7949995630725070E-002  0.76234377499999995        4.5214703048403870E-012   1.3311568320501125E-016
 chl          42   2.9147493960662203E-005   7.6804999516426331E-004   3.7949995630725070E-002
 chl2c          43   2.1185090152268007E-002   2.1185090152268007E-002  0.29539925000000000        4.5214703048403870E-012   1.6265060776576697E-016
 chl          43   1.6263475746836200E-005   7.6768499118683631E-004   2.1185090152268007E-002
 chl2c          44   3.7536352708156646E-002   3.7536352708156646E-002  0.62417262500000004        4.5214703048403870E-012   1.1366603791007283E-016
 chl          44   2.8829795515983794E-005   7.6804999516426331E-004   3.7536352708156646E-002
 chl2c          45  0.37662226207431032        4.6544927192009838E-002  0.37662252499999999        1.7002361197629041E-012   4.5862581749028940E-007
 chl          45   2.8912725794128327E-004   7.6768499118683631E-004  0.37662226207431032     
 chl2c          46  0.51876015493337757        3.7083195475449568E-002  0.51876034999999998        4.5214703048403870E-012   3.1188903668237670E-006
 chl          46   3.9843373448799312E-004   7.6804999516426331E-004  0.51876015493337757     
 chl2c          47   3.7519784612651236E-002   3.7519784612651236E-002  0.61962282499999999        4.5214703048403870E-012   1.4527249145134091E-016
 chl          47   2.8817070390310983E-005   7.6804999516426331E-004   3.7519784612651236E-002
 chl2c          48   3.7823212136301673E-002   3.7823212136301673E-002  0.71424949999999998        4.5214703048403870E-012   1.3969205500274049E-016
 chl          48   2.9050117898383406E-005   7.6804999516426331E-004   3.7823212136301673E-002
 chl2c          49   3.7152990741888416E-002   3.7152990741888416E-002  0.53276120000000005        4.5214703048403870E-012   1.2996961282661126E-016
 chl          49   2.8535354359645316E-005   7.6804999516426331E-004   3.7152990741888416E-002
 chl2c          50  0.38132557300599718        2.1533072915600981E-002  0.38132569999999999        4.5214703048403870E-012   2.5885614705806473E-006
 chl          50   2.9273791915242426E-004   7.6768499118683631E-004  0.38132557300599718     
 chl2c          51   2.0700971146093840E-002   2.0700971146093840E-002  0.22275920000000002        4.5214703048403870E-012   1.7369043173890127E-016
 chl          51   1.5891824851848002E-005   7.6768499118683631E-004   2.0700971146093840E-002
 chl2c          52   3.7581825176985564E-002   3.7581825176985564E-002  0.63698869999999996        4.5214703048403870E-012   1.5464157516922599E-016
 chl          52   2.8864720649521171E-005   7.6804999527264601E-004   3.7581825176985564E-002
 chl2c          53   3.7925801262726190E-002   3.7925801262726190E-002  0.75269794999999995        4.5214703048403870E-012   1.3843074005783630E-016
 chl          53   2.9128911480548162E-005   7.6804999527264601E-004   3.7925801262726190E-002
 chl2c          54   3.7082433371327092E-002   3.7082433371327092E-002  0.51861124999999997        4.5214703048403870E-012   1.1348290857358321E-016
 chl          54   2.8481162771526889E-005   7.6804999516426331E-004   3.7082433371327092E-002
 chl2c          55  0.57808257854603196        3.7357235588660491E-002  0.57808280000000001        4.5214703048403870E-012   3.4115060823778043E-006
 chl          55   4.4399632165682471E-004   7.6804999516426331E-004  0.57808257854603196     
 chl2c          56   3.7507394187257688E-002   3.7507394187257688E-002  0.61626080000000005        4.5214703048403870E-012   1.5505182145672570E-016
 chl          56   2.8807553928212537E-005   7.6804999527264601E-004   3.7507394187257688E-002
 chl2c          57  0.68163422151857977        3.7727617852646313E-002  0.68163462500000005        4.5214703048403870E-012   2.6033297155384462E-006
 chl          57   5.2352916054114159E-004   7.6804999516426331E-004  0.68163422151857977     
 chl2c          58  0.69416750024797258        3.7765358178394853E-002  0.69416802499999997        4.5214703048403870E-012   2.0759861137112062E-006
 chl          58   5.3315534528387983E-004   7.6804999527264601E-004  0.69416750024797258     
 chl2c          59   3.7173699120809672E-002   3.7173699120809672E-002  0.53705127500000005        4.5214703048403870E-012   1.5773307565070179E-016
 chl          59   2.8551259429975649E-005   7.6804999516426331E-004   3.7173699120809672E-002
 chl2c          60  0.64452078909562349        3.7607757740906807E-002  0.64452155000000000        4.5214703048403870E-012   1.2342239744247198E-006
 chl          60   4.9502418894816077E-004   7.6804999516426331E-004  0.64452078909562349     
 chl2c          61   3.7805373434125003E-002   3.7805373434125003E-002  0.70794139999999994        4.5214703048403870E-012   1.3547164955189849E-016
 chl          61   2.9036416883262877E-005   7.6804999516426331E-004   3.7805373434125003E-002
 chl2c          62   3.7956103087269030E-002   3.7956103087269030E-002  0.76481592499999995        4.5214703048403870E-012   1.1049257931696967E-016
 chl          62   2.9152184792631258E-005   7.6804999516426331E-004   3.7956103087269030E-002
 chl2c          63  0.72597852989490763        3.7855601011927406E-002  0.72597904999999996        4.5214703048403870E-012   2.2909016578717904E-006
 chl          63   5.5758780645382626E-004   7.6804999527264601E-004  0.72597852989490763     
 chl2c          64   2.5708982294816416E-002   2.5708982294816416E-002  0.48435739999999999        1.2470639236641320E-011   9.2410957108300689E-017
 chl          64   1.9736399846418672E-005   7.6768499118683631E-004   2.5708982294816416E-002
 chl2c          65   3.7953597170552002E-002   3.7953597170552002E-002  0.76379975000000000        4.5214703048403870E-012   1.2212109193465983E-016
 chl          65   2.9150260127422376E-005   7.6804999527264601E-004   3.7953597170552002E-002
 chl2c          66   3.1840477731474713E-002   3.1840477731474713E-002  0.35213202499999996        3.6336610280162683E-012   8.0043418345767831E-017
 chl          66   2.4443456866671823E-005   7.6768499118683631E-004   3.1840477731474713E-002
 chl2c          67   3.7937587124568600E-002   3.7937587124568600E-002  0.75736760000000003        4.5214703048403870E-012   1.2922812105469461E-016
 chl          67   2.9137963607568730E-005   7.6804999516426331E-004   3.7937587124568600E-002
 chl2c          68  0.72590714765864661        3.7855407263856986E-002  0.72590779999999999        4.5214703048403870E-012   1.8261536375675070E-006
 chl          68   5.5753298132760350E-004   7.6804999527264601E-004  0.72590714765864661     
 chl2c          69  0.45524198910014041        2.1732330561541505E-002  0.45524217500000003        4.5214703048403870E-012   2.5203185004851436E-006
 chl          69   3.4948244239021910E-004   7.6768499118683631E-004  0.45524198910014041     
 chl2c          70   3.2658010878182209E-002   3.2658010878182209E-002  0.48694062500000002        3.6336610280162683E-012   1.1384311777909886E-016
 chl          70   2.5071064793196912E-005   7.6768499118683631E-004   3.2658010878182209E-002
 chl2c          71   4.3481058864416305E-002   4.3481058864416305E-002  0.23986107500000001        1.7002361197629041E-012   8.8002618526655245E-017
 chl          71   3.3379756291123741E-005   7.6768499118683631E-004   4.3481058864416305E-002
 chl2c          72   3.7549776402781669E-002   3.7549776402781669E-002  0.62790522500000001        4.5214703048403870E-012   1.5554290157605342E-016
 chl          72   2.8840105588645376E-005   7.6804999527264601E-004   3.7549776402781669E-002
 chl2c          73   3.1852614277819484E-002   3.1852614277819484E-002  0.35362212500000001        3.6336610280162683E-012   9.6928755549289056E-017
 chl          73   2.4452773911145545E-005   7.6768499118683631E-004   3.1852614277819484E-002
 chl2c          74  0.64719524888300450        3.7616827685877569E-002  0.64719590000000005        4.5214703048403870E-012   1.4543258832240194E-006
 chl          74   4.9707830777492585E-004   7.6804999516426331E-004  0.64719524888300450     
 chl2c          75   3.7826830779512356E-002   3.7826830779512356E-002  0.71554212500000003        4.5214703048403870E-012   1.2253723083703849E-016
 chl          75   2.9052897201383645E-005   7.6804999527264601E-004   3.7826830779512356E-002
 chl2c          76  0.55513954647027508        3.7257729557919804E-002  0.55513977500000000        4.5214703048403870E-012   3.0486776123411788E-006
 chl          76   4.2637492604215364E-004   7.6804999527264601E-004  0.55513954647027508     
 chl2c          77  0.52972916732082209        3.7138172437479272E-002  0.52973029999999999        4.5214703048403870E-012   5.6008181412964478E-007
 chl          77   4.0685848439912662E-004   7.6804999516426331E-004  0.52972916732082209     
 chl2c          78  0.45117483769452393        4.7515248899399322E-002  0.45117492500000000        1.7002361197629041E-012   1.9821092270097521E-006
 chl          78   3.4636015129924292E-004   7.6768499118683631E-004  0.45117483769452393     
 prod   4.2490567174156112E-007   1.6003532124069674E-005   10.000000000000000     
 dcdom   1.0442289160675600E-012  -2.8232598212038168E-010
 chl2c           1  0.60825780123982109        3.7477407714772232E-002  0.60826437499999997        5.7112151034421804E-013   1.6071807963316269E-008
 chl           1   4.1397835906286555E-004   6.8059687556665477E-004  0.60825780123982109     
 chl2c           2  0.48302386914378070        3.2640259920490348E-002  0.48302390000000001        4.6355463966833152E-013   1.7525298988492354E-006
 chl           2   3.2856779003048069E-004   6.8023095962712482E-004  0.48302386914378070     
 chl2c           3   3.7922212503796585E-002   3.7922212503796585E-002  0.75128689999999998        5.7112151034421804E-013   1.5621153739672304E-016
 chl           3   2.5809739344658683E-005   6.8059687556665477E-004   3.7922212503796585E-002
 chl2c           4  0.77318737461571574        3.7976509103863923E-002  0.77318742499999993        5.7112151034421804E-013   3.3882306308604050E-006
 chl           4   5.2622891139104077E-004   6.8059687556665477E-004  0.77318737461571574     
 chl2c           5  0.48489672214873408        2.5710500362372445E-002  0.48489679999999996        1.5705718361557668E-012   2.3717051560418228E-006
 chl           5   3.2984176262728070E-004   6.8023095962712482E-004  0.48489672214873408     
 chl2c           6   3.1261039902252048E-002   3.1261039902252048E-002  0.29222855000000003        4.6355463966833152E-013   1.4060197847673865E-016
 chl           6   2.1264727171650749E-005   6.8023095962712482E-004   3.1261039902252048E-002
 chl2c           7  0.22770739698780570        4.3064391842467263E-002  0.22770740000000000        2.1742839136653808E-013   1.8713609324005925E-006
 chl           7   1.5489362116720973E-004   6.8023095962712482E-004  0.22770739698780570     
 chl2c           8  0.49578350693682649        4.7969800906495587E-002  0.49578364999999996        2.1742839136653808E-013   1.8678529316257492E-007
 chl           8   3.3724729069093876E-004   6.8023095962712482E-004  0.49578350693682649     
 chl2c           9  0.28700199282598438        2.4803669054600401E-002  0.28700202499999999        1.5705718361557668E-012   2.0104460125711335E-006
 chl           9   1.9522764099491653E-004   6.8023095962712482E-004  0.28700199282598438     
 chl2c          10  0.39094658581535335        2.5387016219684602E-002  0.39094662499999999        1.5705718361557668E-012   3.0629983868942288E-006
 chl          10   2.6593397123212591E-004   6.8023095962712482E-004  0.39094658581535335     
 chl2c          11   2.1820572217820047E-002   2.1820572217820047E-002  0.49737575000000001        5.7112151034421804E-013   1.4418450592090447E-016
 chl          11   1.4843028779340710E-005   6.8023095962712482E-004   2.1820572217820047E-002
 chl2c          12   4.5290941298723353E-002   4.5290941298723353E-002  0.30768942500000002        2.1742839136653808E-013   8.7793963899518015E-017
 chl          12   3.0808300462046364E-005   6.8023095962712482E-004   4.5290941298723353E-002
 chl2c          13   3.7935816987997487E-002   3.7935816987997487E-002  0.75666275000000005        5.7112151034421804E-013   1.2983828962346724E-016
 chl          13   2.5818998510753894E-005   6.8059687547846316E-004   3.7935816987997487E-002
 chl2c          14   4.6856526101924839E-002   4.6856526101924839E-002  0.39804095000000000        2.1742839136653808E-013   1.1181654531019575E-016
 chl          14   3.1873259715105756E-005   6.8023095962712482E-004   4.6856526101924839E-002
 chl2c          15  0.25607261974465984        2.0954299823745293E-002  0.25607262500000000        5.7112151034421804E-013   3.5630669856295935E-006
 chl          15   1.7418852386314178E-004   6.8023095962712482E-004  0.25607261974465984     
 chl2c          16   3.7823443882273475E-002   3.7823443882273475E-002  0.71433214999999994        5.7112151034421804E-013   1.6264116650024838E-016
 chl          16   2.5742517729446030E-005   6.8059687556665477E-004   3.7823443882273475E-002
 chl2c          17   3.7542254757581245E-002   3.7542254757581245E-002  0.62580860000000005        5.7112151034421804E-013   1.6255951535121733E-016
 chl          17   2.5551141289737176E-005   6.8059687556665477E-004   3.7542254757581245E-002
 chl2c          18   2.5694475239060960E-002   2.5694475239060960E-002  0.47925950000000000        1.5705718361557668E-012   1.5054587778631700E-016
 chl          18   1.7478177548981835E-005   6.8023095962712482E-004   2.5694475239060960E-002
 chl2c          19  0.63367124469332203        3.7570220750293731E-002  0.63367130000000005        5.7112151034421804E-013   2.0732371693263617E-006
 chl          19   4.3127466927470813E-004   6.8059687556665477E-004  0.63367124469332203     
 chl2c          20   3.7020645196759419E-002   3.7020645196759419E-002  0.50678202500000002        5.7112151034421804E-013   1.4300684701756364E-016
 chl          20   2.5196135449111234E-005   6.8059687547846316E-004   3.7020645196759419E-002
 chl2c          21  0.71973175142564449        3.7838475073783531E-002  0.71973185000000006        5.7112151034421804E-013   1.5006380695021277E-006
 chl          21   4.8984718120293554E-004   6.8059687547846316E-004  0.71973175142564449     
 chl2c          22  0.64616889093363905        3.7613353106285476E-002  0.64616892500000001        5.7112151034421804E-013   3.4999745971503340E-006
 chl          22   4.3978052825780525E-004   6.8059687556665477E-004  0.64616889093363905     
 chl2c          23   3.2286562315070731E-002   3.2286562315070731E-002  0.41564179999999995        4.6355463966833152E-013   1.1492389282789649E-016
 chl          23   2.1962319266641527E-005   6.8023095962712482E-004   3.2286562315070731E-002
 chl2c          24   3.7348402796863071E-002   3.7348402796863071E-002  0.57597492500000003        5.7112151034421804E-013   1.1603226153221846E-016
 chl          24   2.5419206247656102E-005   6.8059687547846316E-004   3.7348402796863071E-002
 chl2c          25   4.5426679235459781E-002   4.5426679235459781E-002  0.31406487500000002        2.1742839136653808E-013   9.2107867516812681E-017
 chl          25   3.0900633609010391E-005   6.8023095962712482E-004   4.5426679235459781E-002
 chl2c          26   4.7955660680174553E-002   4.7955660680174553E-002  0.49427735000000000        2.1742839136653808E-013   8.4903009130593460E-017
 chl          26   3.2620925084027911E-005   6.8023095962712482E-004   4.7955660680174553E-002
 chl2c          27   4.5333133499525620E-002   4.5333133499525620E-002  0.30964730000000001        2.1742839136653808E-013   1.1098068597136430E-016
 chl          27   3.0837000903286875E-005   6.8023095962712482E-004   4.5333133499525620E-002
 chl2c          28   3.1209236063453518E-002   3.1209236063453518E-002  0.28776342500000002        4.6355463966833152E-013   1.1038456666159563E-016
 chl          28   2.1229488596672459E-005   6.8023095962712482E-004   3.1209236063453518E-002
 chl2c          29  0.68676293077783868        3.7743217595736761E-002  0.68676297499999994        5.7112151034421804E-013   3.0455958798299979E-006
 chl          29   4.6740870488182906E-004   6.8059687547846316E-004  0.68676293077783868     
 chl2c          30   2.5380056985171612E-002   2.5380056985171612E-002  0.38930277499999999        1.5705718361557668E-012   1.6512774715997213E-016
 chl          30   1.7264300518414399E-005   6.8023095962712482E-004   2.5380056985171612E-002
 chl2c          31  0.63559380872720550        3.7576959810037038E-002  0.63559385000000002        5.7112151034421804E-013   2.7950783804671201E-006
 chl          31   4.3258316029319202E-004   6.8059687547846316E-004  0.63559380872720550     
 chl2c          32  0.24722667033896026        2.0893126428578448E-002  0.24722667500000001        5.7112151034421804E-013   3.7446080136240675E-006
 chl          32   1.6817123521008977E-004   6.8023095962712482E-004  0.24722667033896026     
 chl2c          33  0.60343133000135718        3.7458922634011876E-002  0.60343137499999999        5.7112151034421804E-013   2.3107600379504037E-006
 chl          33   4.1069347776473712E-004   6.8059687547846316E-004  0.60343133000135718     
 chl2c          34  0.38241013497437659        2.5350269098008315E-002  0.38241020000000003        1.5705718361557668E-012   1.7660465496924633E-006
 chl          34   2.6012721308475852E-004   6.8023095962712482E-004  0.38241013497437659     
 chl2c          35   2.5740370148566064E-002   2.5740370148566064E-002  0.49574644999999995        1.5705718361557668E-012   1.1901191003382518E-016
 chl          35   1.7509396687316490E-005   6.8023095962712482E-004   2.5740370148566064E-002
 chl2c          36   3.7770393924465726E-002   3.7770393924465726E-002  0.69587337500000002        5.7112151034421804E-013   1.2366610594268696E-016
 chl          36   2.5706412093913133E-005   6.8059687556665477E-004   3.7770393924465726E-002
 chl2c          37   2.1353674699533250E-002   2.1353674699533250E-002  0.33194060000000003        5.7112151034421804E-013   1.0891912333607122E-016
 chl          37   1.4525430632428960E-005   6.8023095962712482E-004   2.1353674699533250E-002
 chl2c          38   2.1543295686358745E-002   2.1543295686358745E-002  0.38455722500000000        5.7112151034421804E-013   1.6857520192387316E-016
 chl          38   1.4654416698262708E-005   6.8023095962712482E-004   2.1543295686358745E-002
 chl2c          39   2.5670077108751441E-002   2.5670077108751441E-002  0.47091117500000002        1.5705718361557668E-012   1.3552286185965787E-016
 chl          39   1.7461581185388282E-005   6.8023095962712482E-004   2.5670077108751441E-002
 chl2c          40   3.7687445774703773E-002   3.7687445774703773E-002  0.66875547499999999        5.7112151034421804E-013   1.6295642573001446E-016
 chl          40   2.5649957842351114E-005   6.8059687556665477E-004   3.7687445774703773E-002
 chl2c          41   2.5582381488167241E-002   2.5582381488167241E-002  0.44304987499999998        1.5705718361557668E-012   9.8030075862833402E-017
 chl          41   1.7401927909243195E-005   6.8023095962712482E-004   2.5582381488167241E-002
 chl2c          42   3.7949995630725070E-002   3.7949995630725070E-002  0.76234377499999995        5.7112151034421804E-013   1.3736645458899856E-016
 chl          42   2.5828648450692811E-005   6.8059687547846316E-004   3.7949995630725070E-002
 chl2c          43   2.1185090152268007E-002   2.1185090152268007E-002  0.29539925000000000        5.7112151034421804E-013   1.6784851622043611E-016
 chl          43   1.4410754204064418E-005   6.8023095962712482E-004   2.1185090152268007E-002
 chl2c          44   3.7536352708156646E-002   3.7536352708156646E-002  0.62417262500000004        5.7112151034421804E-013   1.1729038801563472E-016
 chl          44   2.5547124370028962E-005   6.8059687547846316E-004   3.7536352708156646E-002
 chl2c          45  0.37662247534919863        4.6544927192009838E-002  0.37662252499999999        2.1742839136653808E-013   3.1057930877380054E-007
 chl          45   2.5619026782392856E-004   6.8023095962712482E-004  0.37662247534919863     
 chl2c          46  0.51876032535254057        3.7083195475449568E-002  0.51876034999999998        5.7112151034421804E-013   3.1178835480762765E-006
 chl          46   3.5306665655713009E-004   6.8059687547846316E-004  0.51876032535254057     
 chl2c          47   3.7519784612651236E-002   3.7519784612651236E-002  0.61962282499999999        5.7112151034421804E-013   1.4991500778705523E-016
 chl          47   2.5535848175995352E-005   6.8059687547846316E-004   3.7519784612651236E-002
 chl2c          48   3.7823212136301673E-002   3.7823212136301673E-002  0.71424949999999998        5.7112151034421804E-013   1.4415473839714954E-016
 chl          48   2.5742360000526007E-005   6.8059687547846316E-004   3.7823212136301673E-002
 chl2c          49   3.7152990741888416E-002   3.7152990741888416E-002  0.53276120000000005        5.7112151034421804E-013   1.3411901976038587E-016
 chl          49   2.5286209413609525E-005   6.8059687547846316E-004   3.7152990741888416E-002
 chl2c          50  0.38132568466731309        2.1533072915600981E-002  0.38132569999999999        5.7112151034421804E-013   2.7081479592903633E-006
 chl          50   2.5938953641171675E-004   6.8023095962712482E-004  0.38132568466731309     
 chl2c          51   2.0700971146093840E-002   2.0700971146093840E-002  0.22275920000000002        5.7112151034421804E-013   1.7923394854138540E-016
 chl          51   1.4081441467920835E-005   6.8023095962712482E-004   2.0700971146093840E-002
 chl2c          52   3.7581825176985564E-002   3.7581825176985564E-002  0.63698869999999996        5.7112151034421804E-013   1.5958600317953590E-016
 chl          52   2.5578072793548619E-005   6.8059687556665477E-004   3.7581825176985564E-002
 chl2c          53   3.7925801262726190E-002   3.7925801262726190E-002  0.75269794999999995        5.7112151034421804E-013   1.4285277788683593E-016
 chl          53   2.5812181842773335E-005   6.8059687556665477E-004   3.7925801262726190E-002
 chl2c          54   3.7082433371327092E-002   3.7082433371327092E-002  0.51861124999999997        5.7112151034421804E-013   1.1710136400436795E-016
 chl          54   2.5238188287663511E-005   6.8059687547846316E-004   3.7082433371327092E-002
 chl2c          55  0.57808277254146512        3.7357235588660491E-002  0.57808280000000001        5.7112151034421804E-013   3.4753715119964943E-006
 chl          55   3.9344132875964826E-004   6.8059687547846316E-004  0.57808277254146512     
 chl2c          56   3.7507394187257688E-002   3.7507394187257688E-002  0.61626080000000005        5.7112151034421804E-013   1.6000946816158809E-016
 chl          56   2.5527415294494491E-005   6.8059687556665477E-004   3.7507394187257688E-002
 chl2c          57  0.68163457090795176        3.7727617852646313E-002  0.68163462500000005        5.7112151034421804E-013   2.4528350680642455E-006
 chl          57   4.6391835917805493E-004   6.8059687547846316E-004  0.68163457090795176     
 chl2c          58  0.69416796574393536        3.7765358178394853E-002  0.69416802499999997        5.7112151034421804E-013   2.3221747055131305E-006
 chl          58   4.7244854860378305E-004   6.8059687556665477E-004  0.69416796574393536     
 chl2c          59   3.7173699120809672E-002   3.7173699120809672E-002  0.53705127500000005        5.7112151034421804E-013   1.6277711219879617E-016
 chl          59   2.5300303471599556E-005   6.8059687547846316E-004   3.7173699120809672E-002
 chl2c          60  0.64452146702196711        3.7607757740906807E-002  0.64452155000000000        5.7112151034421804E-013   1.4295857699831799E-006
 chl          60   4.3865929663394613E-004   6.8059687547846316E-004  0.64452146702196711     
 chl2c          61   3.7805373434125003E-002   3.7805373434125003E-002  0.70794139999999994        5.7112151034421804E-013   1.3979833458400207E-016
 chl          61   2.5730219035561975E-005   6.8059687547846316E-004   3.7805373434125003E-002
 chl2c          62   3.7956103087269030E-002   3.7956103087269030E-002  0.76481592499999995        5.7112151034421804E-013   1.1401479213902174E-016
 chl          62   2.5832805166533750E-005   6.8059687547846316E-004   3.7956103087269030E-002
 chl2c          63  0.72597898715222131        3.7855601011927406E-002  0.72597904999999996        5.7112151034421804E-013   2.3947309545841867E-006
 chl          63   4.9409903038284643E-004   6.8059687556665477E-004  0.72597898715222131     
 chl2c          64   2.5708982294816416E-002   2.5708982294816416E-002  0.48435739999999999        1.5705718361557668E-012   9.5366644910894263E-017
 chl          64   1.7488045697439731E-005   6.8023095962712482E-004   2.5708982294816416E-002
 chl2c          65   3.7953597170552002E-002   3.7953597170552002E-002  0.76379975000000000        5.7112151034421804E-013   1.2601767855011226E-016
 chl          65   2.5831099650793121E-005   6.8059687556665477E-004   3.7953597170552002E-002
 chl2c          66   3.1840477731474713E-002   3.1840477731474713E-002  0.35213202499999996        4.6355463966833152E-013   9.1652113904436578E-017
 chl          66   2.1658878722267142E-005   6.8023095962712482E-004   3.1840477731474713E-002
 chl2c          67   3.7937587124568600E-002   3.7937587124568600E-002  0.75736760000000003        5.7112151034421804E-013   1.3335363912112491E-016
 chl          67   2.5820203260173361E-005   6.8059687547846316E-004   3.7937587124568600E-002
 chl2c          68  0.72590772833171768        3.7855407263856986E-002  0.72590779999999999        5.7112151034421804E-013   2.0995895798175865E-006
 chl          68   4.9405053185225505E-004   6.8059687556665477E-004  0.72590772833171768     
 chl2c          69  0.45524215181284067        2.1732330561541505E-002  0.45524217500000003        5.7112151034421804E-013   2.5523247477433944E-006
 chl          69   3.0966980579036585E-004   6.8023095962712482E-004  0.45524215181284067     
 chl2c          70   3.2658010878182209E-002   3.2658010878182209E-002  0.48694062500000002        4.6355463966833152E-013   1.3225043594537236E-016
 chl          70   2.2214990079178965E-005   6.8023095962712482E-004   3.2658010878182209E-002
 chl2c          71   4.3481058864416305E-002   4.3481058864416305E-002  0.23986107500000001        2.1742839136653808E-013   1.0051933867935016E-016
 chl          71   2.9577162396945404E-005   6.8023095962712482E-004   4.3481058864416305E-002
 chl2c          72   3.7549776402781669E-002   3.7549776402781669E-002  0.62790522500000001        5.7112151034421804E-013   1.6051637136058290E-016
 chl          72   2.5556260497959704E-005   6.8059687556665477E-004   3.7549776402781669E-002
 chl2c          73   3.1852614277819484E-002   3.1852614277819484E-002  0.35362212500000001        4.6355463966833152E-013   1.1041238730097535E-016
 chl          73   2.1667134376833805E-005   6.8023095962712482E-004   3.1852614277819484E-002
 chl2c          74  0.64719582935352216        3.7616827685877569E-002  0.64719590000000005        5.7112151034421804E-013   1.6930877764580160E-006
 chl          74   4.4047945928069981E-004   6.8059687547846316E-004  0.64719582935352216     
 chl2c          75   3.7826830779512356E-002   3.7826830779512356E-002  0.71554212500000003        5.7112151034421804E-013   1.2644721994619843E-016
 chl          75   2.5744822841124677E-005   6.8059687556665477E-004   3.7826830779512356E-002
 chl2c          76  0.55513974663090604        3.7257729557919804E-002  0.55513977500000000        5.7112151034421804E-013   3.1021137864390211E-006
 chl          76   3.7782637705985903E-004   6.8059687556665477E-004  0.55513974663090604     
 chl2c          77  0.52973019121182718        3.7138172437479272E-002  0.52973029999999999        5.7112151034421804E-013   7.3659095264694647E-007
 chl          77   3.6053271298537842E-004   6.8059687547846316E-004  0.52973019121182718     
 chl2c          78  0.45117491413782779        4.7515248899399322E-002  0.45117492500000000        2.1742839136653808E-013   2.0373210457410623E-006
 chl          78   3.0690314480366025E-004   6.8023095962712482E-004  0.45117491413782779     
 prod   4.9882145526506880E-007   2.0425458378349344E-006   10.000000000000000     
 dcdom   1.1360345000601642E-012  -2.7057630678766675E-010
 chl2c           1  0.60826427169523190        3.7477407714772232E-002  0.60826437499999997        7.6919749582838813E-014   1.3774384066792428E-007
 chl           1   3.3100264306529199E-004   5.4417571188718347E-004  0.60826427169523190     
 chl2c           2  0.48302389455778288        3.2640259920490348E-002  0.48302390000000001        6.2809141901590337E-014   1.3463384006792697E-006
 chl           2   2.6257385025632156E-004   5.4360426723136057E-004  0.48302389455778288     
 chl2c           3   3.7922212503796585E-002   3.7922212503796585E-002  0.75128689999999998        7.6919749582838813E-014   1.4279000125036534E-016
 chl           3   2.0636346985590556E-005   5.4417571188718347E-004   3.7922212503796585E-002
 chl2c           4  0.77318741762910936        3.7976509103863923E-002  0.77318742499999993        7.6919749582838813E-014   3.1193022691123551E-006
 chl           4   4.2074981341053364E-004   5.4417571188718347E-004  0.77318741762910936     
 chl2c           5  0.48489678793886265        2.5710500362372445E-002  0.48489679999999996        2.1105541538059677E-013   2.0572016744598571E-006
 chl           5   2.6359196309034589E-004   5.4360426723136057E-004  0.48489678793886265     
 chl2c           6   3.1261039902252048E-002   3.1261039902252048E-002  0.29222855000000003        6.2809141901590337E-014   1.2897191465619899E-016
 chl           6   1.6993634688954047E-005   5.4360426723136057E-004   3.1261039902252048E-002
 chl2c           7  0.22770739949247842        4.3064391842467263E-002  0.22770740000000000        2.9506853965068858E-014   1.5072756843611705E-006
 chl           7   1.2378271404426741E-004   5.4360426723136057E-004  0.22770739949247842     
 chl2c           8  0.49578363672353482        4.7969800906495587E-002  0.49578364999999996        2.9506853965068858E-014   2.7314599760416120E-007
 chl           8   2.6951010054639623E-004   5.4360426723136057E-004  0.49578363672353482     
 chl2c           9  0.28700202073306058        2.4803669054600401E-002  0.28700202499999999        2.1105541538059677E-013   2.0371356179172713E-006
 chl           9   1.5601552317451515E-004   5.4360426723136057E-004  0.28700202073306058     
 chl2c          10  0.39094661909836326        2.5387016219684602E-002  0.39094662499999999        2.1105541538059677E-013   2.7329328353315362E-006
 chl          10   2.1252025040154358E-004   5.4360426723136057E-004  0.39094661909836326     
 chl2c          11   2.1820572217820047E-002   2.1820572217820047E-002  0.49737575000000001        7.6919749582838813E-014   1.3222873248257087E-016
 chl          11   1.1861756171037050E-005   5.4360426723136057E-004   2.1820572217820047E-002
 chl2c          12   4.5290941298723353E-002   4.5290941298723353E-002  0.30768942500000002        2.9506853965068858E-014   7.1617221001701433E-017
 chl          12   2.4620348956911074E-005   5.4360426723136057E-004   4.5290941298723353E-002
 chl2c          13   3.7935816987997487E-002   3.7935816987997487E-002  0.75666275000000005        7.6919749582838813E-014   1.1858012159445740E-016
 chl          13   2.0643750212902667E-005   5.4417571181962791E-004   3.7935816987997487E-002
 chl2c          14   4.6856526101924839E-002   4.6856526101924839E-002  0.39804095000000000        2.9506853965068858E-014   1.0168335015087673E-016
 chl          14   2.5471407536643972E-005   5.4360426723136057E-004   4.6856526101924839E-002
 chl2c          15  0.25607262421383342        2.0954299823745293E-002  0.25607262500000000        7.6919749582838813E-014   3.2078909779598870E-006
 chl          15   1.3920217124377247E-004   5.4360426723136057E-004  0.25607262421383342     
 chl2c          16   3.7823443882273475E-002   3.7823443882273475E-002  0.71433214999999994        7.6919749582838813E-014   1.4869887356731533E-016
 chl          16   2.0582599500661103E-005   5.4417571188718347E-004   3.7823443882273475E-002
 chl2c          17   3.7542254757581245E-002   3.7542254757581245E-002  0.62580860000000005        7.6919749582838813E-014   1.4862381907417861E-016
 chl          17   2.0429583208556773E-005   5.4417571188718347E-004   3.7542254757581245E-002
 chl2c          18   2.5694475239060960E-002   2.5694475239060960E-002  0.47925950000000000        2.1105541538059677E-013   1.3811680605671603E-016
 chl          18   1.3967626384224071E-005   5.4360426723136057E-004   2.5694475239060960E-002
 chl2c          19  0.63367129214315643        3.7570220750293731E-002  0.63367130000000005        7.6919749582838813E-014   1.9655668647178680E-006
 chl          19   3.4482852650447358E-004   5.4417571188718347E-004  0.63367129214315643     
 chl2c          20   3.7020645196759419E-002   3.7020645196759419E-002  0.50678202500000002        7.6919749582838813E-014   1.3066302235113035E-016
 chl          20   2.0145735951968446E-005   5.4417571181962791E-004   3.7020645196759419E-002
 chl2c          21  0.71973183701626242        3.7838475073783531E-002  0.71973185000000006        7.6919749582838813E-014   1.5344387968260695E-006
 chl          21   3.9166058472757300E-004   5.4417571181962791E-004  0.71973183701626242     
 chl2c          22  0.64616891991630954        3.7613353106285476E-002  0.64616892500000001        7.6919749582838813E-014   3.1587910664315660E-006
 chl          22   3.5162943199483021E-004   5.4417571188718347E-004  0.64616891991630954     
 chl2c          23   3.2286562315070731E-002   3.2286562315070731E-002  0.41564179999999995        6.2809141901590337E-014   9.4770682229515666E-017
 chl          23   1.7551113048703684E-005   5.4360426723136057E-004   3.2286562315070731E-002
 chl2c          24   3.7348402796863071E-002   3.7348402796863071E-002  0.57597492500000003        7.6919749582838813E-014   1.0592383519873782E-016
 chl          24   2.0324093677309142E-005   5.4417571181962791E-004   3.7348402796863071E-002
 chl2c          25   4.5426679235459781E-002   4.5426679235459781E-002  0.31406487500000002        2.9506853965068858E-014   7.5265369400561567E-017
 chl          25   2.4694136678546178E-005   5.4360426723136057E-004   4.5426679235459781E-002
 chl2c          26   4.7955660680174553E-002   4.7955660680174553E-002  0.49427735000000000        2.9506853965068858E-014   6.9179417461773616E-017
 chl          26   2.6068901783642058E-005   5.4360426723136057E-004   4.7955660680174553E-002
 chl2c          27   4.5333133499525620E-002   4.5333133499525620E-002  0.30964730000000001        2.9506853965068858E-014   1.0089768021969252E-016
 chl          27   2.4643284817311071E-005   5.4360426723136057E-004   4.5333133499525620E-002
 chl2c          28   3.1209236063453518E-002   3.1209236063453518E-002  0.28776342500000002        6.2809141901590337E-014   1.0033758800244721E-016
 chl          28   1.6965473901124202E-005   5.4360426723136057E-004   3.1209236063453518E-002
 chl2c          29  0.68676296834275419        3.7743217595736761E-002  0.68676297499999994        7.6919749582838813E-014   2.7247522531613565E-006
 chl          29   3.7371972714927884E-004   5.4417571181962791E-004  0.68676296834275419     
 chl2c          30   2.5380056985171612E-002   2.5380056985171612E-002  0.38930277499999999        2.1105541538059677E-013   1.5163271993004050E-016
 chl          30   1.3796707279714390E-005   5.4360426723136057E-004   2.5380056985171612E-002
 chl2c          31  0.63559384351109827        3.7576959810037038E-002  0.63559385000000002        7.6919749582838813E-014   2.3943962797678985E-006
 chl          31   3.4587473222082507E-004   5.4417571181962791E-004  0.63559384351109827     
 chl2c          32  0.24722667430759393        2.0893126428578448E-002  0.24722667500000001        7.6919749582838813E-014   3.3949832682063855E-006
 chl          32   1.3439347512702584E-004   5.4360426723136057E-004  0.24722667430759393     
 chl2c          33  0.60343136852713442        3.7458922634011876E-002  0.60343137499999999        7.6919749582838813E-014   2.1635505627458844E-006
 chl          33   3.2837269450254559E-004   5.4417571181962791E-004  0.60343136852713442     
 chl2c          34  0.38241018905614593        2.5350269098008315E-002  0.38241020000000003        2.1105541538059677E-013   1.4101169528377352E-006
 chl          34   2.0787981060367227E-004   5.4360426723136057E-004  0.38241018905614593     
 chl2c          35   2.5740370148566064E-002   2.5740370148566064E-002  0.49574644999999995        2.1105541538059677E-013   1.0897702679931298E-016
 chl          35   1.3992575052875243E-005   5.4360426723136057E-004   2.5740370148566064E-002
 chl2c          36   3.7770393924465726E-002   3.7770393924465726E-002  0.69587337500000002        7.6919749582838813E-014   1.1292049689592222E-016
 chl          36   2.0553731002105484E-005   5.4417571188718347E-004   3.7770393924465726E-002
 chl2c          37   2.1353674699533250E-002   2.1353674699533250E-002  0.33194060000000003        7.6919749582838813E-014   9.9675422281918057E-017
 chl          37   1.1607948687736617E-005   5.4360426723136057E-004   2.1353674699533250E-002
 chl2c          38   2.1543295686358745E-002   2.1543295686358745E-002  0.38455722500000000        7.6919749582838813E-014   1.5483207509017988E-016
 chl          38   1.1711027465331577E-005   5.4360426723136057E-004   2.1543295686358745E-002
 chl2c          39   2.5670077108751441E-002   2.5670077108751441E-002  0.47091117500000002        2.1105541538059677E-013   1.2421947472096804E-016
 chl          39   1.3954363456475351E-005   5.4360426723136057E-004   2.5670077108751441E-002
 chl2c          40   3.7687445774703773E-002   3.7687445774703773E-002  0.66875547499999999        7.6919749582838813E-014   1.4898866677546809E-016
 chl          40   2.0508592633659050E-005   5.4417571188718347E-004   3.7687445774703773E-002
 chl2c          41   2.5582381488167241E-002   2.5582381488167241E-002  0.44304987499999998        2.1105541538059677E-013   8.9653112030587437E-017
 chl          41   1.3906691742908277E-005   5.4360426723136057E-004   2.5582381488167241E-002
 chl2c          42   3.7949995630725070E-002   3.7949995630725070E-002  0.76234377499999995        7.6919749582838813E-014   1.2548631754987580E-016
 chl          42   2.0651465885901583E-005   5.4417571181962791E-004   3.7949995630725070E-002
 chl2c          43  0.29539917391664172        2.1185090152268007E-002  0.29539925000000000        7.6919749582838813E-014   4.4109979607325739E-008
 chl          43   1.6058025147770526E-004   5.4360426723136057E-004  0.29539917391664172     
 chl2c          44   3.7536352708156646E-002   3.7536352708156646E-002  0.62417262500000004        7.6919749582838813E-014   1.0707670243864474E-016
 chl          44   2.0426371454073762E-005   5.4417571181962791E-004   3.7536352708156646E-002
 chl2c          45  0.37662250562161426        4.6544927192009838E-002  0.37662252499999999        2.9506853965068858E-014   1.0799107747793933E-007
 chl          45   2.0473360119127660E-004   5.4360426723136057E-004  0.37662250562161426     
 chl2c          46  0.51876034623045331        3.7083195475449568E-002  0.51876034999999998        7.6919749582838813E-014   2.7456949641658602E-006
 chl          46   2.8229678067375358E-004   5.4417571181962791E-004  0.51876034623045331     
 chl2c          47   3.7519784612651236E-002   3.7519784612651236E-002  0.61962282499999999        7.6919749582838813E-014   1.3700599459684833E-016
 chl          47   2.0417355498908609E-005   5.4417571181962791E-004   3.7519784612651236E-002
 chl2c          48   3.7823212136301673E-002   3.7823212136301673E-002  0.71424949999999998        7.6919749582838813E-014   1.3171679148419159E-016
 chl          48   2.0582473387576752E-005   5.4417571181962791E-004   3.7823212136301673E-002
 chl2c          49   3.7152990741888416E-002   3.7152990741888416E-002  0.53276120000000005        7.6919749582838813E-014   1.2250675021077253E-016
 chl          49   2.0217755183195173E-005   5.4417571181962791E-004   3.7152990741888416E-002
 chl2c          50  0.38132569775692055        2.1533072915600981E-002  0.38132569999999999        7.6919749582838813E-014   2.4931898832946522E-006
 chl          50   2.0729027650563808E-004   5.4360426723136057E-004  0.38132569775692055     
 chl2c          51   2.0700971146093840E-002   2.0700971146093840E-002  0.22275920000000002        7.6919749582838813E-014   1.6473338084344724E-016
 chl          51   1.1253136250849881E-005   5.4360426723136057E-004   2.0700971146093840E-002
 chl2c          52   3.7581825176985564E-002   3.7581825176985564E-002  0.63698869999999996        7.6919749582838813E-014   1.4589082931686607E-016
 chl          52   2.0451116469705795E-005   5.4417571188718347E-004   3.7581825176985564E-002
 chl2c          53   3.7925801262726190E-002   3.7925801262726190E-002  0.75269794999999995        7.6919749582838813E-014   1.3052159253273717E-016
 chl          53   2.0638299901035867E-005   5.4417571188718347E-004   3.7925801262726190E-002
 chl2c          54   3.7082433371327092E-002   3.7082433371327092E-002  0.51861124999999997        7.6919749582838813E-014   1.0690348665576088E-016
 chl          54   2.0179359575845845E-005   5.4417571181962791E-004   3.7082433371327092E-002
 chl2c          55  0.57808279589928291        3.7357235588660491E-002  0.57808280000000001        7.6919749582838813E-014   3.1342104189972969E-006
 chl          55   3.1457861694917294E-004   5.4417571181962791E-004  0.57808279589928291     
 chl2c          56   3.7507394187257688E-002   3.7507394187257688E-002  0.61626080000000005        7.6919749582838813E-014   1.4628000646127939E-016
 chl          56   2.0410612932884158E-005   5.4417571188718347E-004   3.7507394187257688E-002
 chl2c          57  0.68163461614080245        3.7727617852646313E-002  0.68163462500000005        7.6919749582838813E-014   2.0170504181474854E-006
 chl          57   3.7092900243932000E-004   5.4417571181962791E-004  0.68163461614080245     
 chl2c          58  0.69416801681748885        3.7765358178394853E-002  0.69416802499999997        7.6919749582838813E-014   2.2649075077237379E-006
 chl          58   3.7774937472097135E-004   5.4417571188718347E-004  0.69416801681748885     
 chl2c          59  0.53705034930256268        3.7173699120809672E-002  0.53705127500000005        7.6919749582838813E-014   1.1983110384357698E-008
 chl          59   2.9224975611470184E-004   5.4417571181962791E-004  0.53705034930256268     
 chl2c          60  0.64452153886497754        3.7607757740906807E-002  0.64452155000000000        7.6919749582838813E-014   1.4348009178675232E-006
 chl          60   3.5073296719493111E-004   5.4417571181962791E-004  0.64452153886497754     
 chl2c          61   3.7805373434125003E-002   3.7805373434125003E-002  0.70794139999999994        7.6919749582838813E-014   1.2771803253845866E-016
 chl          61   2.0572765999121824E-005   5.4417571181962791E-004   3.7805373434125003E-002
 chl2c          62   3.7956103087269030E-002   3.7956103087269030E-002  0.76481592499999995        7.6919749582838813E-014   1.0407535617015949E-016
 chl          62   2.0654789415413801E-005   5.4417571181962791E-004   3.7956103087269030E-002
 chl2c          63  0.72597904079146869        3.7855601011927406E-002  0.72597904999999996        7.6919749582838813E-014   2.2012312490550833E-006
 chl          63   3.9506016133787207E-004   5.4417571188718347E-004  0.72597904079146869     
 chl2c          64   2.5708982294816416E-002   2.5708982294816416E-002  0.48435739999999999        2.1105541538059677E-013   8.7203729904911383E-017
 chl          64   1.3975512481637701E-005   5.4360426723136057E-004   2.5708982294816416E-002
 chl2c          65   3.7953597170552002E-002   3.7953597170552002E-002  0.76379975000000000        7.6919749582838813E-014   1.1507650965931955E-016
 chl          65   2.0653425758964529E-005   5.4417571188718347E-004   3.7953597170552002E-002
 chl2c          66   3.1840477731474713E-002   3.1840477731474713E-002  0.35213202499999996        6.2809141901590337E-014   7.4879359003018409E-017
 chl          66   1.7308619565514765E-005   5.4360426723136057E-004   3.1840477731474713E-002
 chl2c          67   3.7937587124568600E-002   3.7937587124568600E-002  0.75736760000000003        7.6919749582838813E-014   1.2180459824369769E-016
 chl          67   2.0644713478231270E-005   5.4417571181962791E-004   3.7937587124568600E-002
 chl2c          68  0.72590779033586195        3.7855407263856986E-002  0.72590779999999999        7.6919749582838813E-014   2.0970445457468820E-006
 chl          68   3.9502138857046997E-004   5.4417571188718347E-004  0.72590779033586195     
 chl2c          69  0.45524217151103791        2.1732330561541505E-002  0.45524217500000003        7.6919749582838813E-014   2.2845285490036855E-006
 chl          69   2.4747158705707112E-004   5.4360426723136057E-004  0.45524217151103791     
 chl2c          70   3.2658010878182209E-002   3.2658010878182209E-002  0.48694062500000002        6.2809141901590337E-014   1.2100848416406566E-016
 chl          70   1.7753034072668041E-005   5.4360426723136057E-004   3.2658010878182209E-002
 chl2c          71   4.3481058864416305E-002   4.3481058864416305E-002  0.23986107500000001        2.9506853965068858E-014   8.2414896320802187E-017
 chl          71   2.3636489142434682E-005   5.4360426723136057E-004   4.3481058864416305E-002
 chl2c          72   3.7549776402781669E-002   3.7549776402781669E-002  0.62790522500000001        7.6919749582838813E-014   1.4674588089621415E-016
 chl          72   2.0433676305188276E-005   5.4417571188718347E-004   3.7549776402781669E-002
 chl2c          73   3.1852614277819484E-002   3.1852614277819484E-002  0.35362212500000001        6.2809141901590337E-014   9.0885488324420519E-017
 chl          73   1.7315217043897235E-005   5.4360426723136057E-004   3.1852614277819484E-002
 chl2c          74  0.64719589056747229        3.7616827685877569E-002  0.64719590000000005        7.6919749582838813E-014   1.7078561119678287E-006
 chl          74   3.5218828443629225E-004   5.4417571181962791E-004  0.64719589056747229     
 chl2c          75   3.7826830779512356E-002   3.7826830779512356E-002  0.71554212500000003        7.6919749582838813E-014   1.1547036666444256E-016
 chl          75   2.0584442567877160E-005   5.4417571188718347E-004   3.7826830779512356E-002
 chl2c          76  0.55513977075852172        3.7257729557919804E-002  0.55513977500000000        7.6919749582838813E-014   2.7944433390241299E-006
 chl          76   3.0209357994940639E-004   5.4417571188718347E-004  0.55513977075852172     
 chl2c          77  0.52973028680997436        3.7138172437479272E-002  0.52973029999999999        7.6919749582838813E-014   8.1822330386268971E-007
 chl          77   2.8826635589723347E-004   5.4417571181962791E-004  0.52973028680997436     
 chl2c          78  0.45117492312916019        4.7515248899399322E-002  0.45117492500000000        2.9506853965068858E-014   1.6052630929391559E-006
 chl          78   2.4526061348079255E-004   5.4360426723136057E-004  0.45117492312916019     
 prod   3.9318264817242849E-007   2.7686605383264286E-007   10.000000000000000     
 dcdom   1.1801008978756779E-012  -2.5413089561181337E-010
 chl2c           1  0.60826436613500612        3.7477407714772232E-002  0.60826437499999997        1.1169716136139107E-014   2.3308721708147678E-007
 chl           1   2.3794088272476271E-004   3.9118004599985234E-004  0.60826436613500612     
 chl2c           2  0.48302389861084588        3.2640259920490348E-002  0.48302390000000001        9.1480530564753579E-015   7.6821975102747021E-007
 chl           2   1.8863999893761082E-004   3.9053968029352298E-004  0.48302389861084588     
 chl2c           3   3.7922212503796585E-002   3.7922212503796585E-002  0.75128689999999998        1.1169716136139107E-014   1.2407844768110833E-016
 chl           3   1.4834412831651323E-005   3.9118004599985234E-004   3.7922212503796585E-002
 chl2c           4  0.77318742377066563        3.7976509103863923E-002  0.77318742499999993        1.1169716136139107E-014   2.7158869580062088E-006
 chl           4   3.0245549199711631E-004   3.9118004599985234E-004  0.77318742377066563     
 chl2c           5  0.48489679785438011        2.5710500362372445E-002  0.48489679999999996        3.0640671847373680E-014   1.6788586824546752E-006
 chl           5   1.8937144040940266E-004   3.9053968029352298E-004  0.48489679785438011     
 chl2c           6   3.1261039902252048E-002   3.1261039902252048E-002  0.29222855000000003        9.1480530564753579E-015   1.0328286124435359E-016
 chl           6   1.2208676529068580E-005   3.9053968029352298E-004   3.1261039902252048E-002
 chl2c           7  0.22770739987743244        4.3064391842467263E-002  0.22770740000000000        4.2998475379283616E-015   9.0949797663552946E-007
 chl           7   8.8928775148601854E-005   3.9053968029352298E-004  0.22770739987743244     
 chl2c           8  0.49578364782427337        4.7969800906495587E-002  0.49578364999999996        4.2998475379283616E-015   2.4288636196603034E-007
 chl           8   1.9362318731604831E-004   3.9053968029352298E-004  0.49578364782427337     
 chl2c           9  0.28700202433607325        2.4803669054600401E-002  0.28700202499999999        3.0640671847373680E-014   1.9007195190458965E-006
 chl           9   1.1208567882780395E-004   3.9053968029352298E-004  0.28700202433607325     
 chl2c          10  0.39094662398285090        2.5387016219684602E-002  0.39094662499999999        3.0640671847373680E-014   2.3020704474301716E-006
 chl          10   1.5268016954209473E-004   3.9053968029352298E-004  0.39094662398285090     
 chl2c          11   2.1820572217820047E-002   2.1820572217820047E-002  0.49737575000000001        1.1169716136139107E-014   1.1494926455333535E-016
 chl          11   8.5217992977691701E-006   3.9053968029352298E-004   2.1820572217820047E-002
 chl2c          12   4.5290941298723353E-002   4.5290941298723353E-002  0.30768942500000002        4.2998475379283616E-015   4.3842586585473014E-017
 chl          12   1.7687909734996135E-005   3.9053968029352298E-004   4.5290941298723353E-002
 chl2c          13   3.7935816987997487E-002   3.7935816987997487E-002  0.75666275000000005        1.1169716136139107E-014   1.0303571782648222E-016
 chl          13   1.4839734632614853E-005   3.9118004595261512E-004   3.7935816987997487E-002
 chl2c          14   4.6856526101924839E-002   4.6856526101924839E-002  0.39804095000000000        4.2998475379283616E-015   8.0519455798669983E-017
 chl          14   1.8299332723510841E-005   3.9053968029352298E-004   4.6856526101924839E-002
 chl2c          15  0.25607262486582660        2.0954299823745293E-002  0.25607262500000000        1.1169716136139107E-014   2.7294302704905858E-006
 chl          15   1.0000652104702316E-004   3.9053968029352298E-004  0.25607262486582660     
 chl2c          16   3.7823443882273475E-002   3.7823443882273475E-002  0.71433214999999994        1.1169716136139107E-014   1.2921515444978635E-016
 chl          16   1.4795776517740572E-005   3.9118004599985234E-004   3.7823443882273475E-002
 chl2c          17   3.7542254757581245E-002   3.7542254757581245E-002  0.62580860000000005        1.1169716136139107E-014   1.2914990567689500E-016
 chl          17   1.4685780943008807E-005   3.9118004599985234E-004   3.7542254757581245E-002
 chl2c          18   2.5694475239060960E-002   2.5694475239060960E-002  0.47925950000000000        3.0640671847373680E-014   1.2007669457218725E-016
 chl          18   1.0034712145172709E-005   3.9053968029352298E-004   2.5694475239060960E-002
 chl2c          19  0.63367129872140870        3.7570220750293731E-002  0.63367130000000005        1.1169716136139107E-014   1.7539146970236851E-006
 chl          19   2.4787956778262685E-004   3.9118004599985234E-004  0.63367129872140870     
 chl2c          20   3.7020645196759419E-002   3.7020645196759419E-002  0.50678202500000002        1.1169716136139107E-014   1.1353729167371784E-016
 chl          20   1.4481737689263810E-005   3.9118004595261512E-004   3.7020645196759419E-002
 chl2c          21  0.71973184801147527        3.7838475073783531E-002  0.71973185000000006        1.1169716136139107E-014   1.4548645299151401E-006
 chl          21   2.8154473737868952E-004   3.9118004595261512E-004  0.71973184801147527     
 chl2c          22  0.64616892413979476        3.7613353106285476E-002  0.64616892500000001        1.1169716136139107E-014   2.7108293806034672E-006
 chl          22   2.5276838946868002E-004   3.9118004599985234E-004  0.64616892413979476     
 chl2c          23   3.2286562315070731E-002   3.2286562315070731E-002  0.41564179999999995        9.1480530564753579E-015   5.9123776429987870E-017
 chl          23   1.2609183724304630E-005   3.9053968029352298E-004   3.2286562315070731E-002
 chl2c          24   3.7348402796863071E-002   3.7348402796863071E-002  0.57597492500000003        1.1169716136139107E-014   9.2036927554436233E-017
 chl          24   1.4609949922333676E-005   3.9118004595261512E-004   3.7348402796863071E-002
 chl2c          25   4.5426679235459781E-002   4.5426679235459781E-002  0.31406487500000002        4.2998475379283616E-015   4.6212254820984452E-017
 chl          25   1.7740920785412882E-005   3.9053968029352298E-004   4.5426679235459781E-002
 chl2c          26   4.7955660680174553E-002   4.7955660680174553E-002  0.49427735000000000        4.2998475379283616E-015   4.2266880936198665E-017
 chl          26   1.8728588390300042E-005   3.9053968029352298E-004   4.7955660680174553E-002
 chl2c          27   4.5333133499525620E-002   4.5333133499525620E-002  0.30964730000000001        4.2998475379283616E-015   7.9871325362553323E-017
 chl          27   1.7704387463608333E-005   3.9053968029352298E-004   4.5333133499525620E-002
 chl2c          28   3.1209236063453518E-002   3.1209236063453518E-002  0.28776342500000002        9.1480530564753579E-015   7.9409530912694395E-017
 chl          28   1.2188445074426225E-005   3.9053968029352298E-004   3.1209236063453518E-002
 chl2c          29  0.68676297386263419        3.7743217595736761E-002  0.68676297499999994        1.1169716136139107E-014   2.3159315175841626E-006
 chl          29   2.6864797167413986E-004   3.9118004595261512E-004  0.68676297386263419     
 chl2c          30   2.5380056985171612E-002   2.5380056985171612E-002  0.38930277499999999        3.0640671847373680E-014   1.3185212154892511E-016
 chl          30   9.9119193408203160E-006   3.9053968029352298E-004   2.5380056985171612E-002
 chl2c          31  0.63559384883685444        3.7576959810037038E-002  0.63559385000000002        1.1169716136139107E-014   1.9397127450898662E-006
 chl          31   2.4863163099520023E-004   3.9118004595261512E-004  0.63559384883685444     
 chl2c          32  0.24722667488289143        2.0893126428578448E-002  0.24722667500000001        1.1169716136139107E-014   2.9148354334976858E-006
 chl          32   9.6551826568795171E-005   3.9053968029352298E-004  0.24722667488289143     
 chl2c          33  0.60343137393584900        3.7458922634011876E-002  0.60343137499999999        1.1169716136139107E-014   1.9110176353192125E-006
 chl          33   2.3605031258547510E-004   3.9118004595261512E-004  0.60343137393584900     
 chl2c          34  0.38241019786173908        2.5350269098008315E-002  0.38241020000000003        3.0640671847373680E-014   1.0477713290789117E-006
 chl          34   1.4934635641390643E-004   3.9053968029352298E-004  0.38241019786173908     
 chl2c          35   2.5740370148566064E-002   2.5740370148566064E-002  0.49574644999999995        3.0640671847373680E-014   9.4713494811330703E-017
 chl          35   1.0052635928457933E-005   3.9053968029352298E-004   2.5740370148566064E-002
 chl2c          36   3.7770393924465726E-002   3.7770393924465726E-002  0.69587337500000002        1.1169716136139107E-014   9.8117161496478565E-017
 chl          36   1.4775024432805046E-005   3.9118004599985234E-004   3.7770393924465726E-002
 chl2c          37   2.1353674699533250E-002   2.1353674699533250E-002  0.33194060000000003        1.1169716136139107E-014   8.6623004563310002E-017
 chl          37   8.3394572902476058E-006   3.9053968029352298E-004   2.1353674699533250E-002
 chl2c          38   2.2685970570097413E-002   2.1543295686358745E-002  0.38455722500000000        1.1169716136139107E-014   1.3464071033848259E-016
 chl          38   8.8597716935941148E-006   3.9053968029352298E-004   2.2685970570097413E-002
 chl2c          39   2.5670077108751441E-002   2.5670077108751441E-002  0.47091117500000002        3.0640671847373680E-014   1.0797679914335839E-016
 chl          39   1.0025183707161870E-005   3.9053968029352298E-004   2.5670077108751441E-002
 chl2c          40   3.7687445774703773E-002   3.7687445774703773E-002  0.66875547499999999        1.1169716136139107E-014   1.2946708732696091E-016
 chl          40   1.4742576771765563E-005   3.9118004599985234E-004   3.7687445774703773E-002
 chl2c          41   2.5582381488167241E-002   2.5582381488167241E-002  0.44304987499999998        3.0640671847373680E-014   7.7908038564370158E-017
 chl          41   9.9909350875357748E-006   3.9053968029352298E-004   2.5582381488167241E-002
 chl2c          42   3.7949995630725070E-002   3.7949995630725070E-002  0.76234377499999995        1.1169716136139107E-014   1.0903793577878010E-016
 chl          42   1.4845281034728576E-005   3.9118004595261512E-004   3.7949995630725070E-002
 chl2c          43  0.29539924761591191        2.1185090152268007E-002  0.29539925000000000        1.1169716136139107E-014   2.0441304842615097E-007
 chl          43   1.1536512772286546E-004   3.9053968029352298E-004  0.29539924761591191     
 chl2c          44   3.7536352708156646E-002   3.7536352708156646E-002  0.62417262500000004        1.1169716136139107E-014   9.3038770970437449E-017
 chl          44   1.4683472177270285E-005   3.9118004595261512E-004   3.7536352708156646E-002
 chl2c          45   4.6544927192009838E-002   4.6544927192009838E-002  0.37662252499999999        4.2998475379283616E-015   5.4902946381569669E-017
 chl          45   1.8177640984852827E-005   3.9053968029352298E-004   4.6544927192009838E-002
 chl2c          46  0.51876034934421145        3.7083195475449568E-002  0.51876034999999998        1.1169716136139107E-014   2.2918271244945715E-006
 chl          46   2.0292869729486329E-004   3.9118004595261512E-004  0.51876034934421145     
 chl2c          47   3.7519784612651236E-002   3.7519784612651236E-002  0.61962282499999999        1.1169716136139107E-014   1.1905063238555397E-016
 chl          47   1.4676991068909133E-005   3.9118004595261512E-004   3.7519784612651236E-002
 chl2c          48   3.7823212136301673E-002   3.7823212136301673E-002  0.71424949999999998        1.1169716136139107E-014   1.1445320768416952E-016
 chl          48   1.4795685861553998E-005   3.9118004595261512E-004   3.7823212136301673E-002
 chl2c          49   3.7152990741888416E-002   3.7152990741888416E-002  0.53276120000000005        1.1169716136139107E-014   1.0644833045783133E-016
 chl          49   1.4533508625688994E-005   3.9118004595261512E-004   3.7152990741888416E-002
 chl2c          50  0.38132569962472879        2.1533072915600981E-002  0.38132569999999999        1.1169716136139107E-014   2.1640086078644428E-006
 chl          50   1.4892281681914556E-004   3.9053968029352298E-004  0.38132569962472879     
 chl2c          51   2.3004684574815647E-002   2.0700971146093840E-002  0.22275920000000002        1.1169716136139107E-014   1.4327402697840596E-016
 chl          51   8.9842421591018418E-006   3.9053968029352298E-004   2.3004684574815647E-002
 chl2c          52   3.7581825176985564E-002   3.7581825176985564E-002  0.63698869999999996        1.1169716136139107E-014   1.2677401685822207E-016
 chl          52   1.4701260101491621E-005   3.9118004599985234E-004   3.7581825176985564E-002
 chl2c          53   3.7925801262726190E-002   3.7925801262726190E-002  0.75269794999999995        1.1169716136139107E-014   1.1341436431138920E-016
 chl          53   1.4835816682534488E-005   3.9118004599985234E-004   3.7925801262726190E-002
 chl2c          54   3.7082433371327092E-002   3.7082433371327092E-002  0.51861124999999997        1.1169716136139107E-014   9.2888245691573142E-017
 chl          54   1.4505907990230520E-005   3.9118004595261512E-004   3.7082433371327092E-002
 chl2c          55  0.57808279930585427        3.7357235588660491E-002  0.57808280000000001        1.1169716136139107E-014   2.6886954763919796E-006
 chl          55   2.2613445599688046E-004   3.9118004595261512E-004  0.57808279930585427     
 chl2c          56   3.7507394187257688E-002   3.7507394187257688E-002  0.61626080000000005        1.1169716136139107E-014   1.2711233804825286E-016
 chl          56   1.4672144183506056E-005   3.9118004599985234E-004   3.7507394187257688E-002
 chl2c          57  0.68163462333987834        3.7727617852646313E-002  0.68163462500000005        1.1169716136139107E-014   1.5630594154938729E-006
 chl          57   2.6664186328098708E-004   3.9118004595261512E-004  0.68163462333987834     
 chl2c          58  0.69416802369750796        3.7765358178394853E-002  0.69416802499999997        1.1169716136139107E-014   2.0661712438575491E-006
 chl          58   2.7154467944161774E-004   3.9118004599985234E-004  0.69416802369750796     
 chl2c          59  0.53705126163312433        3.7173699120809672E-002  0.53705127500000005        1.1169716136139107E-014   1.2050740215720374E-007
 chl          59   2.1008373720455550E-004   3.9118004595261512E-004  0.53705126163312433     
 chl2c          60  0.64452154826979524        3.7607757740906807E-002  0.64452155000000000        1.1169716136139107E-014   1.3408788142589312E-006
 chl          60   2.5212396886962915E-004   3.9118004595261512E-004  0.64452154826979524     
 chl2c          61   3.7805373434125003E-002   3.7805373434125003E-002  0.70794139999999994        1.1169716136139107E-014   1.1097761333327716E-016
 chl          61   1.4788707717216793E-005   3.9118004595261512E-004   3.7805373434125003E-002
 chl2c          62   3.7956103087269030E-002   3.7956103087269030E-002  0.76481592499999995        1.1169716136139107E-014   9.0430612314518745E-017
 chl          62   1.4847670149860096E-005   3.9118004595261512E-004   3.7956103087269030E-002
 chl2c          63  0.72597904846405326        3.7855601011927406E-002  0.72597904999999996        1.1169716136139107E-014   1.9163912840452308E-006
 chl          63   2.8398851757309738E-004   3.9118004599985234E-004  0.72597904846405326     
 chl2c          64   2.5708982294816416E-002   2.5708982294816416E-002  0.48435739999999999        3.0640671847373680E-014   7.5778495355333097E-017
 chl          64   1.0040377726089446E-005   3.9053968029352298E-004   2.5708982294816416E-002
 chl2c          65  0.76379970728969515        3.7953597170552002E-002  0.76379975000000000        1.1169716136139107E-014   7.6284880231947571E-008
 chl          65   2.9878320463225673E-004   3.9118004599985234E-004  0.76379970728969515     
 chl2c          66   3.1840477731474713E-002   3.1840477731474713E-002  0.35213202499999996        9.1480530564753579E-015   4.5960857091366155E-017
 chl          66   1.2434969993643172E-005   3.9053968029352298E-004   3.1840477731474713E-002
 chl2c          67   3.7937587124568600E-002   3.7937587124568600E-002  0.75736760000000003        1.1169716136139107E-014   1.0583808531298071E-016
 chl          67   1.4840427074720085E-005   3.9118004595261512E-004   3.7937587124568600E-002
 chl2c          68  0.72590779849072395        3.7855407263856986E-002  0.72590779999999999        1.1169716136139107E-014   1.9498732261564358E-006
 chl          68   2.8396064600525297E-004   3.9118004599985234E-004  0.72590779849072395     
 chl2c          69  0.45524217440187043        2.1732330561541505E-002  0.45524217500000003        1.1169716136139107E-014   1.9350930684008750E-006
 chl          69   1.7779013324703471E-004   3.9053968029352298E-004  0.45524217440187043     
 chl2c          70   3.2658010878182209E-002   3.2658010878182209E-002  0.48694062500000002        9.1480530564753579E-015   9.6589368410310403E-017
 chl          70   1.2754249127387675E-005   3.9053968029352298E-004   3.2658010878182209E-002
 chl2c          71   4.3481058864416305E-002   4.3481058864416305E-002  0.23986107500000001        4.2998475379283616E-015   5.0897168091891086E-017
 chl          71   1.6981078827732999E-005   3.9053968029352298E-004   4.3481058864416305E-002
 chl2c          72   3.7549776402781669E-002   3.7549776402781669E-002  0.62790522500000001        1.1169716136139107E-014   1.2751733617120787E-016
 chl          72   1.4688723260524304E-005   3.9118004599985234E-004   3.7549776402781669E-002
 chl2c          73   3.1852614277819484E-002   3.1852614277819484E-002  0.35362212500000001        9.1480530564753579E-015   5.6518972971987428E-017
 chl          73   1.2439709796572527E-005   3.9053968029352298E-004   3.1852614277819484E-002
 chl2c          74  0.64719589853938242        3.7616827685877569E-002  0.64719590000000005        1.1169716136139107E-014   1.6015744365237411E-006
 chl          74   2.5317012133097965E-004   3.9118004595261512E-004  0.64719589853938242     
 chl2c          75   3.7826830779512356E-002   3.7826830779512356E-002  0.71554212500000003        1.1169716136139107E-014   1.0033312532186283E-016
 chl          75   1.4797101404358274E-005   3.9118004599985234E-004   3.7826830779512356E-002
 chl2c          76  0.55513977428173400        3.7257729557919804E-002  0.55513977500000000        1.1169716136139107E-014   2.3962468739237810E-006
 chl          76   2.1715960243987636E-004   3.9118004599985234E-004  0.55513977428173400     
 chl2c          77  0.52973029810605554        3.7138172437479272E-002  0.52973029999999999        1.1169716136139107E-014   8.2747436889049431E-007
 chl          77   2.0721992235561931E-004   3.9118004595261512E-004  0.52973029810605554     
 chl2c          78  0.45117492459458691        4.7515248899399322E-002  0.45117492500000000        4.2998475379283616E-015   1.0794814439861923E-006
 chl          78   1.7620171080762431E-004   3.9053968029352298E-004  0.45117492459458691     
 prod   2.2752019853477681E-007   4.0321381125123581E-008   10.000000000000000     
 dcdom   1.2040855580139784E-012  -2.3611522882605520E-010
 chl2c           1  0.60826437391324961        3.7477407714772232E-002  0.60826437499999997        1.7527745617960281E-015   2.9836718145949169E-007
 chl           1   1.4488047793354331E-004   2.3818669010887376E-004  0.60826437391324961     
 chl2c           2  0.48302389918227007        3.2640259920490348E-002  0.48302390000000001        1.4363671062720373E-015   2.0490981867650137E-007
 chl           2   1.1474066137492530E-004   2.3754655115238444E-004  0.48302389918227007     
 chl2c           3  0.10429741782187522        3.7922212503796585E-002  0.75128689999999998        1.7527745617960281E-015   1.0613978851859598E-016
 chl           3   2.4842256737894721E-005   2.3818669010887376E-004  0.10429741782187522     
 chl2c           4  0.77318742477404812        3.7976509103863923E-002  0.77318742499999993        1.7527745617960281E-015   2.3187284430467447E-006
 chl           4   1.8416295354073433E-004   2.3818669010887376E-004  0.77318742477404812     
 chl2c           5  0.48489679957475279        2.5710500362372445E-002  0.48489679999999996        4.8193881913471401E-015   1.3323523539671234E-006
 chl           5   1.1518556240381151E-004   2.3754655115238444E-004  0.48489679957475279     
 chl2c           6   7.4660921622706919E-002   3.1261039902252048E-002  0.29222855000000003        1.4363671062720373E-015   7.2020671676828033E-017
 chl           6   1.7735444437332516E-005   2.3754655115238444E-004   7.4660921622706919E-002
 chl2c           7  0.22770739993245070        4.3064391842467263E-002  0.22770740000000000        6.7472387929935755E-016   2.5895808590919037E-007
 chl           7   5.4091107525830363E-005   2.3754655115238444E-004  0.22770739993245070     
 chl2c           8  0.49578364909223266        4.7969800906495587E-002  0.49578364999999996        6.7472387929935755E-016   9.1349448044451644E-008
 chl           8   1.1777169595960387E-004   2.3754655115238444E-004  0.49578364909223266     
 chl2c           9  0.28700202488301513        2.4803669054600401E-002  0.28700202499999999        4.8193881913471401E-015   1.6966884424501993E-006
 chl           9   6.8176341184711064E-005   2.3754655115238444E-004  0.28700202488301513     
 chl2c          10  0.39094662480478742        2.5387016219684602E-002  0.39094662499999999        4.8193881913471401E-015   1.8866404482639152E-006
 chl          10   9.2868022407042482E-005   2.3754655115238444E-004  0.39094662480478742     
 chl2c          11   9.0984144633767416E-002   2.1820572217820047E-002  0.49737575000000001        1.7527745617960281E-015   9.7589178278641939E-017
 chl          11   2.1612969767301177E-005   2.3754655115238444E-004   9.0984144633767416E-002
 chl2c          12   4.5290941298723353E-002   4.5290941298723353E-002  0.30768942500000002        6.7472387929935755E-016   1.2665904279632966E-017
 chl          12   1.0758706903956828E-005   2.3754655115238444E-004   4.5290941298723353E-002
 chl2c          13   8.8932267654674088E-002   3.7935816987997487E-002  0.75666275000000005        1.7527745617960281E-015   8.8319496455708562E-017
 chl          13   2.1182482474057568E-005   2.3818669008092319E-004   8.8932267654674088E-002
 chl2c          14  0.11710550578347846        4.6856526101924839E-002  0.39804095000000000        6.7472387929935755E-016   5.5975066449271442E-017
 chl          14   2.7818009019820918E-005   2.3754655115238444E-004  0.11710550578347846     
 chl2c          15  0.25607262497453331        2.0954299823745293E-002  0.25607262500000000        1.7527745617960281E-015   2.2565721234957780E-006
 chl          15   6.0829168907238338E-005   2.3754655115238444E-004  0.25607262497453331     
 chl2c          16  0.10715181497960700        3.7823443882273475E-002  0.71433214999999994        1.7527745617960281E-015   1.1047858344715993E-016
 chl          16   2.5522136149151032E-005   2.3818669010887376E-004  0.10715181497960700     
 chl2c          17  0.10488189573370382        3.7542254757581245E-002  0.62580860000000005        1.7527745617960281E-015   1.1042349793154526E-016
 chl          17   2.4981471597154920E-005   2.3818669010887376E-004  0.10488189573370382     
 chl2c          18   3.8841885221139218E-002   2.5694475239060960E-002  0.47925950000000000        4.8193881913471401E-015   1.0185169571375222E-016
 chl          18   9.2267558745383921E-006   2.3754655115238444E-004   3.8841885221139218E-002
 chl2c          19  0.63367129977038483        3.7570220750293731E-002  0.63367130000000005        1.7527745617960281E-015   1.5325809385757432E-006
 chl          19   1.5093206950929591E-004   2.3818669010887376E-004  0.63367129977038483     
 chl2c          20   9.1012436079980025E-002   3.7020645196759419E-002  0.50678202500000002        1.7527745617960281E-015   9.7222164886895832E-017
 chl          20   2.1677950906092033E-005   2.3818669008092319E-004   9.1012436079980025E-002
 chl2c          21  0.71973184965961923        3.7838475073783531E-002  0.71973185000000006        1.7527745617960281E-015   1.3337437752805211E-006
 chl          21   1.7143054701624532E-004   2.3818669008092319E-004  0.71973184965961923     
 chl2c          22  0.64616892484030897        3.7613353106285476E-002  0.64616892500000001        1.7527745617960281E-015   2.2914338871268135E-006
 chl          22   1.5390883745892281E-004   2.3818669010887376E-004  0.64616892484030897     
 chl2c          23   3.2286562315070731E-002   3.2286562315070731E-002  0.41564179999999995        1.4363671062720373E-015   1.7454440676806271E-017
 chl          23   7.6695615265115975E-006   2.3754655115238444E-004   3.2286562315070731E-002
 chl2c          24   7.7923287622013865E-002   3.7348402796863071E-002  0.57597492500000003        1.7527745617960281E-015   7.8975527978639759E-017
 chl          24   1.8560289958911253E-005   2.3818669008092319E-004   7.7923287622013865E-002
 chl2c          25   4.5426679235459781E-002   4.5426679235459781E-002  0.31406487500000002        6.7472387929935755E-016   1.3394982969636507E-017
 chl          25   1.0790950982689106E-005   2.3754655115238444E-004   4.5426679235459781E-002
 chl2c          26   4.7955660680174553E-002   4.7955660680174553E-002  0.49427735000000000        6.7472387929935755E-016   1.2183780226114653E-017
 chl          26   1.1391701802809475E-005   2.3754655115238444E-004   4.7955660680174553E-002
 chl2c          27  0.10745853721533988        4.5333133499525620E-002  0.30964730000000001        6.7472387929935755E-016   5.5519723184432572E-017
 chl          27   2.5526404907384141E-005   2.3754655115238444E-004  0.10745853721533988     
 chl2c          28   6.0654780024773182E-002   3.1209236063453518E-002  0.28776342500000002        1.4363671062720373E-015   5.5195340272782853E-017
 chl          28   1.4408333805791409E-005   2.3754655115238444E-004   6.0654780024773182E-002
 chl2c          29  0.68676297478676207        3.7743217595736761E-002  0.68676297499999994        1.7527745617960281E-015   1.9384093837527982E-006
 chl          29   1.6357779983458735E-004   2.3818669008092319E-004  0.68676297478676207     
 chl2c          30   4.1392866799119639E-002   2.5380056985171612E-002  0.38930277499999999        4.8193881913471401E-015   1.1161128842908524E-016
 chl          30   9.8327327504409089E-006   2.3754655115238444E-004   4.1392866799119639E-002
 chl2c          31  0.63559384977021938        3.7576959810037038E-002  0.63559385000000002        1.7527745617960281E-015   1.5407847655770148E-006
 chl          31   1.5138999531256008E-004   2.3818669008092319E-004  0.63559384977021938     
 chl2c          32  0.24722667497801920        2.0893126428578448E-002  0.24722667500000001        1.7527745617960281E-015   2.4369305267795705E-006
 chl          32   5.8727843993899957E-005   2.3754655115238444E-004  0.24722667497801920     
 chl2c          33  0.60343137480725084        3.7458922634011876E-002  0.60343137499999999        1.7527745617960281E-015   1.6556155958866345E-006
 chl          33   1.4372932185632007E-004   2.3818669008092319E-004  0.60343137480725084     
 chl2c          34  0.38241019952953553        2.5350269098008315E-002  0.38241020000000003        4.8193881913471401E-015   7.4902096235835631E-007
 chl          34   9.0840224023736347E-005   2.3754655115238444E-004  0.38241019952953553     
 chl2c          35   3.1367164521003417E-002   2.5740370148566064E-002  0.49574644999999995        4.8193881913471401E-015   8.0690786634497121E-017
 chl          35   7.4511617513937964E-006   2.3754655115238444E-004   3.1367164521003417E-002
 chl2c          36   8.4370835177857276E-002   3.7770393924465726E-002  0.69587337500000002        1.7527745617960281E-015   8.4143460535500294E-017
 chl          36   2.0096009972735157E-005   2.3818669010887376E-004   8.4370835177857276E-002
 chl2c          37   6.7242387903822101E-002   2.1353674699533250E-002  0.33194060000000003        1.7527745617960281E-015   7.3900701412439501E-017
 chl          37   1.5973197337803753E-005   2.3754655115238444E-004   6.7242387903822101E-002
 chl2c          38   9.7147389012484570E-002   2.1543295686358745E-002  0.38455722500000000        1.7527745617960281E-015   1.1391647743467096E-016
 chl          38   2.3077027213374755E-005   2.3754655115238444E-004   9.7147389012484570E-002
 chl2c          39   3.5237875656946208E-002   2.5670077108751441E-002  0.47091117500000002        4.8193881913471401E-015   9.1780344671542400E-017
 chl          39   8.3706358322441347E-006   2.3754655115238444E-004   3.5237875656946208E-002
 chl2c          40  0.10623925079521347        3.7687445774703773E-002  0.66875547499999999        1.7527745617960281E-015   1.1069126812060952E-016
 chl          40   2.5304775506558432E-005   2.3818669010887376E-004  0.10623925079521347     
 chl2c          41   2.6002554394353596E-002   2.5582381488167241E-002  0.44304987499999998        4.8193881913471401E-015   6.6564888687814611E-017
 chl          41   6.1768171175309753E-006   2.3754655115238444E-004   2.6002554394353596E-002
 chl2c          42   9.3511345980967830E-002   3.7949995630725070E-002  0.76234377499999995        1.7527745617960281E-015   9.3410115777929785E-017
 chl          42   2.2273157984218767E-005   2.3818669008092319E-004   9.3511345980967830E-002
 chl2c          43  0.29539924976408732        2.1185090152268007E-002  0.29539925000000000        1.7527745617960281E-015   3.2416305573195662E-007
 chl          43   7.0171072994460753E-005   2.3754655115238444E-004  0.29539924976408732     
 chl2c          44   7.9487227075495950E-002   3.7536352708156646E-002  0.62417262500000004        1.7527745617960281E-015   7.9827475925446470E-017
 chl          44   1.8932799520823121E-005   2.3818669008092319E-004   7.9487227075495950E-002
 chl2c          45   4.6544927192009838E-002   4.6544927192009838E-002  0.37662252499999999        6.7472387929935755E-016   1.6110966289160014E-017
 chl          45   1.1056586928100775E-005   2.3754655115238444E-004   4.6544927192009838E-002
 chl2c          46  0.51876034987449759        3.7083195475449568E-002  0.51876034999999998        1.7527745617960281E-015   1.8792192165251871E-006
 chl          46   1.2356181068182823E-004   2.3818669008092319E-004  0.51876034987449759     
 chl2c          47   9.7892330613609468E-002   3.7519784612651236E-002  0.61962282499999999        1.7527745617960281E-015   1.0188867636641479E-016
 chl          47   2.3316650213163068E-005   2.3818669008092319E-004   9.7892330613609468E-002
 chl2c          48   9.6683715583061852E-002   3.7823212136301673E-002  0.71424949999999998        1.7527745617960281E-015   9.7997752759194956E-017
 chl          48   2.3028774199454878E-005   2.3818669008092319E-004   9.6683715583061852E-002
 chl2c          49   8.7070165850628128E-002   3.7152990741888416E-002  0.53276120000000005        1.7527745617960281E-015   9.1214551813431946E-017
 chl          49   2.0738954608758144E-005   2.3818669008092319E-004   8.7070165850628128E-002
 chl2c          50  0.38132569993044646        2.1533072915600981E-002  0.38132569999999999        1.7527745617960281E-015   1.8321839920085292E-006
 chl          50   9.0582604884246594E-005   2.3754655115238444E-004  0.38132569993044646     
 chl2c          51   8.5253581279451263E-002   2.0700971146093840E-002  0.22275920000000002        1.7527745617960281E-015   1.2103860301210835E-016
 chl          51   2.0251694206323133E-005   2.3754655115238444E-004   8.5253581279451263E-002
 chl2c          52  0.10359089638703629        3.7581825176985564E-002  0.63698869999999996        1.7527745617960281E-015   1.0841719381674338E-016
 chl          52   2.4673972735839464E-005   2.3818669010887376E-004  0.10359089638703629     
 chl2c          53   9.6595105783266744E-002   3.7925801262726190E-002  0.75269794999999995        1.7527745617960281E-015   9.7118060603233077E-017
 chl          53   2.3007668527232835E-005   2.3818669010887376E-004   9.6595105783266744E-002
 chl2c          54   7.7373185136195330E-002   3.7082433371327092E-002  0.51861124999999997        1.7527745617960281E-015   7.9699482885536934E-017
 chl          54   1.8429262868608851E-005   2.3818669008092319E-004   7.7373185136195330E-002
 chl2c          55  0.57808279987112710        3.7357235588660491E-002  0.57808280000000001        1.7527745617960281E-015   2.2725537510745581E-006
 chl          55   1.3769162869401650E-004   2.3818669008092319E-004  0.57808279987112710     
 chl2c          56  0.10325339387645152        3.7507394187257688E-002  0.61626080000000005        1.7527745617960281E-015   1.0870294493915465E-016
 chl          56   2.4593584129939842E-005   2.3818669010887376E-004  0.10325339387645152     
 chl2c          57  0.68163462465586222        3.7727617852646313E-002  0.68163462500000005        1.7527745617960281E-015   1.1832236814776027E-006
 chl          57   1.6235629509133226E-004   2.3818669008092319E-004  0.68163462465586222     
 chl2c          58  0.69416802476959172        3.7765358178394853E-002  0.69416802499999997        1.7527745617960281E-015   1.8328510011569242E-006
 chl          58   1.6534158419928376E-004   2.3818669010887376E-004  0.69416802476959172     
 chl2c          59  0.53705127374584527        3.7173699120809672E-002  0.53705127500000005        1.7527745617960281E-015   2.0154703181652910E-007
 chl          59   1.2791846529726668E-004   2.3818669008092319E-004  0.53705127374584527     
 chl2c          60  0.64452154970081710        3.7607757740906807E-002  0.64452155000000000        1.7527745617960281E-015   1.2168420083232653E-006
 chl          60   1.5351645460906486E-004   2.3818669008092319E-004  0.64452154970081710     
 chl2c          61   9.4051758198310659E-002   3.7805373434125003E-002  0.70794139999999994        1.7527745617960281E-015   9.5053910728563925E-017
 chl          61   2.2401876981546947E-005   2.3818669008092319E-004   9.4051758198310659E-002
 chl2c          62   7.9366238403446490E-002   3.7956103087269030E-002  0.76481592499999995        1.7527745617960281E-015   7.7609199377207592E-017
 chl          62   1.8903981629490372E-005   2.3818669008092319E-004   7.9366238403446490E-002
 chl2c          63  0.72597904971873517        3.7855601011927406E-002  0.72597904999999996        1.7527745617960281E-015   1.6422100130315780E-006
 chl          63   1.7291854694089103E-004   2.3818669010887376E-004  0.72597904971873517     
 chl2c          64   2.5708982294816416E-002   2.5708982294816416E-002  0.48435739999999999        4.8193881913471401E-015   6.4768943437565028E-017
 chl          64   6.1070800777713539E-006   2.3754655115238444E-004   2.5708982294816416E-002
 chl2c          65  0.76379974634954406        3.7953597170552002E-002  0.76379975000000000        1.7527745617960281E-015   1.4005801329514955E-007
 chl          65   1.8192693348899523E-004   2.3818669010887376E-004  0.76379974634954406     
 chl2c          66   3.1840477731474713E-002   3.1840477731474713E-002  0.35213202499999996        1.4363671062720373E-015   1.3317404777134167E-017
 chl          66   7.5635956721561152E-006   2.3754655115238444E-004   3.1840477731474713E-002
 chl2c          67   9.1048426147947503E-002   3.7937587124568600E-002  0.75736760000000003        1.7527745617960281E-015   9.0696999687248388E-017
 chl          67   2.1686523261256995E-005   2.3818669008092319E-004   9.1048426147947503E-002
 chl2c          68  0.72590779973697739        3.7855407263856986E-002  0.72590779999999999        1.7527745617960281E-015   1.7557632107246608E-006
 chl          68   1.7290157614356582E-004   2.3818669010887376E-004  0.72590779973697739     
 chl2c          69  0.45524217488662866        2.1732330561541505E-002  0.45524217500000003        1.7527745617960281E-015   1.6020559667152077E-006
 chl          69   1.0814120858342928E-004   2.3754655115238444E-004  0.45524217488662866     
 chl2c          70   7.8577194858101426E-002   3.2658010878182209E-002  0.48694062500000002        1.4363671062720373E-015   6.7291644485369115E-017
 chl          70   1.8665741637770871E-005   2.3754655115238444E-004   7.8577194858101426E-002
 chl2c          71   4.3481058864416305E-002   4.3481058864416305E-002  0.23986107500000001        6.7472387929935755E-016   1.4850791878187278E-017
 chl          71   1.0328775573695907E-005   2.3754655115238444E-004   4.3481058864416305E-002
 chl2c          72  0.10384722533890188        3.7549776402781669E-002  0.62790522500000001        1.7527745617960281E-015   1.0904498708548196E-016
 chl          72   2.4735026880463404E-005   2.3818669010887376E-004  0.10384722533890188     
 chl2c          73   3.1852614277819484E-002   3.1852614277819484E-002  0.35362212500000001        1.4363671062720373E-015   1.6623429413289550E-017
 chl          73   7.5664786668832171E-006   2.3754655115238444E-004   3.1852614277819484E-002
 chl2c          74  0.64719589974765446        3.7616827685877569E-002  0.64719590000000005        1.7527745617960281E-015   1.4546943036383630E-006
 chl          74   1.5415344919483880E-004   2.3818669008092319E-004  0.64719589974765446     
 chl2c          75   8.6317896351818094E-002   3.7826830779512356E-002  0.71554212500000003        1.7527745617960281E-015   8.6025396492380686E-017
 chl          75   2.0559774029200382E-005   2.3818669010887376E-004   8.6317896351818094E-002
 chl2c          76  0.55513977486675803        3.7257729557919804E-002  0.55513977500000000        1.7527745617960281E-015   2.0270280736233145E-006
 chl          76   1.3222690552329845E-004   2.3818669010887376E-004  0.55513977486675803     
 chl2c          77  0.52973029969252938        3.7138172437479272E-002  0.52973029999999999        1.7527745617960281E-015   7.9983813936334931E-007
 chl          77   1.2617470671933906E-004   2.3818669008092319E-004  0.52973029969252938     
 chl2c          78  0.45117492488906041        4.7515248899399322E-002  0.45117492500000000        6.7472387929935755E-016   6.1901232857541146E-007
 chl          78   1.0717504737383240E-004   2.3754655115238444E-004  0.45117492488906041     
 prod   6.1923877106691975E-008   6.3259498297513527E-009   10.000000000000000     
 dcdom   1.2265676580419666E-012  -2.1809016563987441E-010
 chl2c           1  0.60826437484742280        3.7477407714772232E-002  0.60826437499999997        3.0171659280901582E-016   3.6581753700341994E-007
 chl           1   1.0189371798869653E-004   1.6751551167903855E-004  0.60826437484742280     
 chl2c           2  0.48302389946422902        3.2640259920490348E-002  0.48302390000000001        2.4680126265901765E-016   5.3737249899086811E-008
 chl           2   8.0771691319606151E-005   1.6722090026849242E-004  0.48302389946422902     
 chl2c           3  0.34436722782245260        3.7922212503796585E-002  0.75128689999999998        3.0171659280901582E-016   9.5915356173454977E-017
 chl           3   5.7686852374170184E-005   1.6751551167903855E-004  0.34436722782245260     
 chl2c           4  0.77318742495678461        3.7976509103863923E-002  0.77318742499999993        3.0171659280901582E-016   2.0869019741792754E-006
 chl           4   1.2952088711543400E-004   1.6751551167903855E-004  0.77318742495678461     
 chl2c           5  0.48489679991107754        2.5710500362372445E-002  0.48489679999999996        8.3435313849233630E-016   1.1030811051421821E-006
 chl           5   8.1084879418441414E-005   1.6722090026849242E-004  0.48489679991107754     
 chl2c           6  0.17712667263428428        3.1261039902252048E-002  0.29222855000000003        2.4680126265901765E-016   5.5493431648320278E-017
 chl           6   2.9619281659467558E-005   1.6722090026849242E-004  0.17712667263428428     
 chl2c           7  0.22770739995935330        4.3064391842467263E-002  0.22770740000000000        1.1570260234005255E-016   7.3797550179588738E-008
 chl           7   3.8077436419000732E-005   1.6722090026849242E-004  0.22770739995935330     
 chl2c           8  0.49578364956314813        4.7969800906495587E-002  0.49578364999999996        1.1570260234005255E-016   3.2550922129308506E-008
 chl           8   8.2905388218348385E-005   1.6722090026849242E-004  0.49578364956314813     
 chl2c           9  0.28700202497839028        2.4803669054600401E-002  0.28700202499999999        8.3435313849233630E-016   1.5901615727376791E-006
 chl           9   4.7992736995766773E-005   1.6722090026849242E-004  0.28700202497839028     
 chl2c          10  0.39094662496089239        2.5387016219684602E-002  0.39094662499999999        8.3435313849233630E-016   1.6303974300541357E-006
 chl          10   6.5374446582889092E-005   1.6722090026849242E-004  0.39094662496089239     
 chl2c          11  0.26869767166856312        2.1820572217820047E-002  0.49737575000000001        3.0171659280901582E-016   8.8164383551048243E-017
 chl          11   4.4931866556464911E-005   1.6722090026849242E-004  0.26869767166856312     
 chl2c          12   5.2432877310982902E-002   4.5290941298723353E-002  0.30768942500000002        1.1570260234005255E-016   3.6563899046375953E-018
 chl          12   8.7678729476099710E-006   1.6722090026849242E-004   5.2432877310982902E-002
 chl2c          13  0.31135557894413124        3.7935816987997487E-002  0.75666275000000005        3.0171659280901582E-016   7.9812059297004554E-017
 chl          13   5.2156889114827437E-005   1.6751551165937619E-004  0.31135557894413124     
 chl2c          14  0.25950227046048807        4.6856526101924839E-002  0.39804095000000000        1.1570260234005255E-016   4.3133132902810215E-017
 chl          14   4.3394203288120622E-005   1.6722090026849242E-004  0.25950227046048807     
 chl2c          15  0.25607262499500011        2.0954299823745293E-002  0.25607262500000000        3.0171659280901582E-016   1.9784997835958935E-006
 chl          15   4.2820694885779973E-005   1.6722090026849242E-004  0.25607262499500011     
 chl2c          16  0.34352745274196478        3.7823443882273475E-002  0.71433214999999994        3.0171659280901582E-016   9.9835642682995485E-017
 chl          16   5.7546177021866960E-005   1.6751551167903855E-004  0.34352745274196478     
 chl2c          17  0.32156896285834313        3.7542254757581245E-002  0.62580860000000005        3.0171659280901582E-016   9.9785871937616802E-017
 chl          17   5.3867789353313091E-005   1.6751551167903855E-004  0.32156896285834313     
 chl2c          18  0.15104378726653006        2.5694475239060960E-002  0.47925950000000000        8.3435313849233630E-016   9.2009810634687298E-017
 chl          18   2.5257678086671810E-005   1.6722090026849242E-004  0.15104378726653006     
 chl2c          19  0.63367129995682059        3.7570220750293731E-002  0.63367130000000005        3.0171659280901582E-016   1.4028771188331557E-006
 chl          19   1.0614977204858831E-004   1.6751551167903855E-004  0.63367129995682059     
 chl2c          20  0.27097932497732180        3.7020645196759419E-002  0.50678202500000002        3.0171659280901582E-016   8.7857286249270545E-017
 chl          20   4.5393240272688441E-005   1.6751551165937619E-004  0.27097932497732180     
 chl2c          21  0.71973184993873307        3.7838475073783531E-002  0.71973185000000006        3.0171659280901582E-016   1.2755090903572021E-006
 chl          21   1.2056624910003624E-004   1.6751551165937619E-004  0.71973184993873307     
 chl2c          22  0.64616892496921075        3.7613353106285476E-002  0.64616892500000001        3.0171659280901582E-016   2.0457943384441303E-006
 chl          22   1.0824331809731161E-004   1.6751551167903855E-004  0.64616892496921075     
 chl2c          23   3.7395253696656049E-002   3.2286562315070731E-002  0.41564179999999995        2.4680126265901765E-016   5.0708190262887334E-018
 chl          23   6.2532679889234932E-006   1.6722090026849242E-004   3.7395253696656049E-002
 chl2c          24  0.25973960511985228        3.7348402796863071E-002  0.57597492500000003        3.0171659280901582E-016   7.1367515466359091E-017
 chl          24   4.3510412849856381E-005   1.6751551165937619E-004  0.25973960511985228     
 chl2c          25   5.5155854461258480E-002   4.5426679235459781E-002  0.31406487500000002        1.1570260234005255E-016   3.8705878965257010E-018
 chl          25   9.2232116380895874E-006   1.6722090026849242E-004   5.5155854461258480E-002
 chl2c          26   5.4107592698081915E-002   4.7955660680174553E-002  0.49427735000000000        1.1570260234005255E-016   3.5149718633639255E-018
 chl          26   9.0479203623341640E-006   1.6722090026849242E-004   5.4107592698081915E-002
 chl2c          27  0.21825934936451627        4.5333133499525620E-002  0.30964730000000001        1.1570260234005255E-016   4.2782321465399145E-017
 chl          27   3.6497524892749822E-005   1.6722090026849242E-004  0.21825934936451627     
 chl2c          28  0.15682808556863470        3.1209236063453518E-002  0.28776342500000002        2.4680126265901765E-016   4.2532404745456812E-017
 chl          28   2.6224933656171258E-005   1.6722090026849242E-004  0.15682808556863470     
 chl2c          29  0.68676297495828531        3.7743217595736761E-002  0.68676297499999994        3.0171659280901582E-016   1.7056703579820032E-006
 chl          29   1.1504345113885252E-004   1.6751551165937619E-004  0.68676297495828531     
 chl2c          30  0.14909963894572764        2.5380056985171612E-002  0.38930277499999999        8.3435313849233630E-016   1.0081039729156412E-016
 chl          30   2.4932575854211749E-005   1.6722090026849242E-004  0.14909963894572764     
 chl2c          31  0.63559384995229351        3.7576959810037038E-002  0.63559385000000002        3.0171659280901582E-016   1.2774719260731172E-006
 chl          31   1.0647182898231123E-004   1.6751551165937619E-004  0.63559384995229351     
 chl2c          32  0.24722667499575951        2.0893126428578448E-002  0.24722667500000001        3.0171659280901582E-016   2.1744076359817761E-006
 chl          32   4.1341467163176893E-005   1.6722090026849242E-004  0.24722667499575951     
 chl2c          33  0.60343137496349308        3.7458922634011876E-002  0.60343137499999999        3.0171659280901582E-016   1.5046960107917364E-006
 chl          33   1.0108411552833043E-004   1.6751551165937619E-004  0.60343137496349308     
 chl2c          34  0.38241019988814146        2.5350269098008315E-002  0.38241020000000003        8.3435313849233630E-016   5.4539320393761901E-007
 chl          34   6.3946977897149149E-005   1.6722090026849242E-004  0.38241019988814146     
 chl2c          35  0.12921739690085662        2.5740370148566064E-002  0.49574644999999995        8.3435313849233630E-016   7.2910840410039848E-017
 chl          35   2.1607849440112347E-005   1.6722090026849242E-004  0.12921739690085662     
 chl2c          36  0.29230985504831397        3.7770393924465726E-002  0.69587337500000002        3.0171659280901582E-016   7.6038050802944543E-017
 chl          36   4.8966434937243907E-005   1.6751551167903855E-004  0.29230985504831397     
 chl2c          37  0.18969313600127025        2.1353674699533250E-002  0.33194060000000003        3.0171659280901582E-016   6.6778499692378805E-017
 chl          37   3.1720656976885980E-005   1.6722090026849242E-004  0.18969313600127025     
 chl2c          38  0.24590393333446478        2.1543295686358745E-002  0.38455722500000000        3.0171659280901582E-016   1.0288817537604264E-016
 chl          38   4.1120277111752544E-005   1.6722090026849242E-004  0.24590393333446478     
 chl2c          39  0.13977278510071270        2.5670077108751441E-002  0.47091117500000002        8.3435313849233630E-016   8.2922424403813829E-017
 chl          39   2.3372930957575700E-005   1.6722090026849242E-004  0.13977278510071270     
 chl2c          40  0.33294728608403962        3.7687445774703773E-002  0.66875547499999999        3.0171659280901582E-016   1.0002780673446712E-016
 chl          40   5.5773834990515129E-005   1.6751551167903855E-004  0.33294728608403962     
 chl2c          41  0.10878449621675540        2.5582381488167241E-002  0.44304987499999998        8.3435313849233630E-016   6.0151731628942017E-017
 chl          41   1.8191041392620247E-005   1.6722090026849242E-004  0.10878449621675540     
 chl2c          42  0.32269505092316014        3.7949995630725070E-002  0.76234377499999995        3.0171659280901582E-016   8.4412457705367772E-017
 chl          42   5.4056426565341628E-005   1.6751551165937619E-004  0.32269505092316014     
 chl2c          43  0.29539924997042405        2.1185090152268007E-002  0.29539925000000000        3.0171659280901582E-016   4.4509208979846781E-007
 chl          43   4.9396928518691743E-005   1.6722090026849242E-004  0.29539924997042405     
 chl2c          44  0.27075455259812281        3.7536352708156646E-002  0.62417262500000004        3.0171659280901582E-016   7.2137473943396177E-017
 chl          44   4.5355587412580026E-005   1.6751551165937619E-004  0.27075455259812281     
 chl2c          45   6.6501393397426667E-002   4.6544927192009838E-002  0.37662252499999999        1.1570260234005255E-016   4.6721718367223405E-018
 chl          45   1.1120422873026865E-005   1.6722090026849242E-004   6.6501393397426667E-002
 chl2c          46  0.51876034997487497        3.7083195475449568E-002  0.51876034999999998        3.0171659280901582E-016   1.6158286657942469E-006
 chl          46   8.6900405454638246E-005   1.6751551165937619E-004  0.51876034997487497     
 chl2c          47  0.30747191984386690        3.7519784612651236E-002  0.61962282499999999        3.0171659280901582E-016   9.2074096829816438E-017
 chl          47   5.1506315973536064E-005   1.6751551165937619E-004  0.30747191984386690     
 chl2c          48  0.32221007469285734        3.7823212136301673E-002  0.71424949999999998        3.0171659280901582E-016   8.8558145989056453E-017
 chl          48   5.3975185523979816E-005   1.6751551165937619E-004  0.32221007469285734     
 chl2c          49  0.26974619344937451        3.7152990741888416E-002  0.53276120000000005        3.0171659280901582E-016   8.2428345745904180E-017
 chl          49   4.5186671613841043E-005   1.6751551165937619E-004  0.26974619344937451     
 chl2c          50  0.38132569998664395        2.1533072915600981E-002  0.38132569999999999        3.0171659280901582E-016   1.6424200700619165E-006
 chl          50   6.3765626847279647E-005   1.6722090026849242E-004  0.38132569998664395     
 chl2c          51  0.17037784204078529        2.0700971146093840E-002  0.22275920000000002        3.0171659280901582E-016   1.0930529703817997E-016
 chl          51   2.8490736131863111E-005   1.6722090026849242E-004  0.17037784204078529     
 chl2c          52  0.32157656489386260        3.7581825176985564E-002  0.63698869999999996        3.0171659280901582E-016   9.7973115955237524E-017
 chl          52   5.3869062812182940E-005   1.6751551167903855E-004  0.32157656489386260     
 chl2c          53  0.32814016247261912        3.7925801262726190E-002  0.75269794999999995        3.0171659280901582E-016   8.7763212056097340E-017
 chl          53   5.4968567219043632E-005   1.6751551167903855E-004  0.32814016247261912     
 chl2c          54  0.24858020110742299        3.7082433371327092E-002  0.51861124999999997        3.0171659280901582E-016   7.2021798833251715E-017
 chl          54   4.1641039576900591E-005   1.6751551165937619E-004  0.24858020110742299     
 chl2c          55  0.57808279997515100        3.7357235588660491E-002  0.57808280000000001        3.0171659280901582E-016   2.0288064378378578E-006
 chl          55   9.6837836019322246E-005   1.6751551165937619E-004  0.57808279997515100     
 chl2c          56  0.31661247373834267        3.7507394187257688E-002  0.61626080000000005        3.0171659280901582E-016   9.8231303537018163E-017
 chl          56   5.3037500542244630E-005   1.6751551167903855E-004  0.31661247373834267     
 chl2c          57  0.68163462492450810        3.7727617852646313E-002  0.68163462500000005        3.0171659280901582E-016   9.2847879496375730E-007
 chl          57   1.1418437295897595E-004   1.6751551165937619E-004  0.68163462492450810     
 chl2c          58  0.69416802495735186        3.7765358178394853E-002  0.69416802499999997        3.0171659280901582E-016   1.7045037842306582E-006
 chl          58   1.1628391189195840E-004   1.6751551167903855E-004  0.69416802495735186     
 chl2c          59  0.53705127484491633        3.7173699120809672E-002  0.53705127500000005        3.0171659280901582E-016   2.8056547066734651E-007
 chl          59   8.9964419092966420E-005   1.6751551165937619E-004  0.53705127484491633     
 chl2c          60  0.64452154994558430        3.7607757740906807E-002  0.64452155000000000        3.0171659280901582E-016   1.1516474601966255E-006
 chl          60   1.0796735721462874E-004   1.6751551165937619E-004  0.64452154994558430     
 chl2c          61  0.31557715233580969        3.7805373434125003E-002  0.70794139999999994        3.0171659280901582E-016   8.5897917477780136E-017
 chl          61   5.2864068141542065E-005   1.6751551165937619E-004  0.31557715233580969     
 chl2c          62  0.28913886880490441        3.7956103087269030E-002  0.76481592499999995        3.0171659280901582E-016   7.0132673492185987E-017
 chl          62   4.8435245548466806E-005   1.6751551165937619E-004  0.28913886880490441     
 chl2c          63  0.72597904994620588        3.7855601011927406E-002  0.72597904999999996        3.0171659280901582E-016   1.4780279486899251E-006
 chl          63   1.2161275202000096E-004   1.6751551167903855E-004  0.72597904994620588     
 chl2c          64  0.10878716190758780        2.5708982294816416E-002  0.48435739999999999        8.3435313849233630E-016   5.8529164531395275E-017
 chl          64   1.8191487151841079E-005   1.6722090026849242E-004  0.10878716190758780     
 chl2c          65  0.76379974956320984        3.7953597170552002E-002  0.76379975000000000        3.0171659280901582E-016   2.0149085062533806E-007
 chl          65   1.2794830586840259E-004   1.6751551167903855E-004  0.76379974956320984     
 chl2c          66   3.1840477731474713E-002   3.1840477731474713E-002  0.35213202499999996        2.4680126265901765E-016   3.8477763584175169E-018
 chl          66   5.3243933512360871E-006   1.6722090026849242E-004   3.1840477731474713E-002
 chl2c          67  0.31635740927985034        3.7937587124568600E-002  0.75736760000000003        3.0171659280901582E-016   8.1960633483961518E-017
 chl          67   5.2994773282748816E-005   1.6751551165937619E-004  0.31635740927985034     
 chl2c          68  0.72590779995198262        3.7855407263856986E-002  0.72590779999999999        3.0171659280901582E-016   1.6555171262545689E-006
 chl          68   1.2160081654076152E-004   1.6751551167903855E-004  0.72590779995198262     
 chl2c          69  0.45524217497761155        2.1732330561541505E-002  0.45524217500000003        3.0171659280901582E-016   1.3964645915043834E-006
 chl          69   7.6126006339942754E-005   1.6722090026849242E-004  0.45524217497761155     
 chl2c          70  0.22555291528146934        3.2658010878182209E-002  0.48694062500000002        2.4680126265901765E-016   5.1850944492472091E-017
 chl          70   3.7717161551550307E-005   1.6722090026849242E-004  0.22555291528146934     
 chl2c          71   5.6739727600227295E-002   4.3481058864416305E-002  0.23986107500000001        1.1570260234005255E-016   4.2995319288086389E-018
 chl          71   9.4880683302990348E-006   1.6722090026849242E-004   5.6739727600227295E-002
 chl2c          72  0.32015098928695590        3.7549776402781669E-002  0.62790522500000001        3.0171659280901582E-016   9.8540351074543313E-017
 chl          72   5.3630256784954804E-005   1.6751551167903855E-004  0.32015098928695590     
 chl2c          73   3.5201243983892509E-002   3.1852614277819484E-002  0.35362212500000001        2.4680126265901765E-016   4.8240664665499747E-018
 chl          73   5.8863837095573580E-006   1.6722090026849242E-004   3.5201243983892509E-002
 chl2c          74  0.64719589995421689        3.7616827685877569E-002  0.64719590000000005        3.0171659280901582E-016   1.3801803272169190E-006
 chl          74   1.0841535232468108E-004   1.6751551165937619E-004  0.64719589995421689     
 chl2c          75  0.29956978903870196        3.7826830779512356E-002  0.71554212500000003        3.0171659280901582E-016   7.7738824620463916E-017
 chl          75   5.0182586494399794E-005   1.6751551167903855E-004  0.29956978903870196     
 chl2c          76  0.55513977497428602        3.7257729557919804E-002  0.55513977500000000        3.0171659280901582E-016   1.8080270545984499E-006
 chl          76   9.2994523458203837E-005   1.6751551167903855E-004  0.55513977497428602     
 chl2c          77  0.52973029994708598        3.7138172437479272E-002  0.52973029999999999        3.0171659280901582E-016   8.0003342556721199E-007
 chl          77   8.8738042237110934E-005   1.6751551165937619E-004  0.52973029994708598     
 chl2c          78  0.45117492496860928        4.7515248899399322E-002  0.45117492500000000        1.1570260234005255E-016   3.7514735814121963E-007
 chl          78   7.5445877131820362E-005   1.6722090026849242E-004  0.45117492496860928     
 prod   1.7581997650103978E-008   1.0850001454717508E-009   10.000000000000000     
 dcdom   1.2336033053002303E-012  -1.9289407757096668E-010
 chl2c           1  0.60826437499185559        3.7477407714772232E-002  0.60826437499999997        5.8190072833161415E-017   1.3217423641315446E-006
 chl           1   7.5861660115712225E-005   1.2471823640292592E-004  0.60826437499185559     
 chl2c           2  0.48302389984005778        3.2640259920490348E-002  0.48302390000000001        4.7384435437082401E-017   3.4560488106552361E-008
 chl           2   6.0155573667177722E-005   1.2453953870004538E-004  0.48302389984005778     
 chl2c           3  0.68766466250818559        3.7922212503796585E-002  0.75128689999999998        5.8190072833161415E-017   2.3626124619513619E-016
 chl           3   8.5764323944634153E-005   1.2471823640292592E-004  0.68766466250818559     
 chl2c           4  0.77318742499655546        3.7976509103863923E-002  0.77318742499999993        5.8190072833161415E-017   5.0497870009976292E-006
 chl           4   9.6430572054489956E-005   1.2471823640292592E-004  0.77318742499655546     
 chl2c           5  0.48489679999117780        2.5710500362372445E-002  0.48489679999999996        1.6254517937019266E-016   2.1660457530903373E-006
 chl           5   6.0388823788029455E-005   1.2453953870004538E-004  0.48489679999117780     
 chl2c           6  0.25324087452885286        3.1261039902252048E-002  0.29222855000000003        4.7384435437082401E-017   4.4971235619121001E-017
 chl           6   3.1538501693819404E-005   1.2453953870004538E-004  0.25324087452885286     
 chl2c           7  0.22770739998989323        4.3064391842467263E-002  0.22770740000000000        2.2130877952259782E-017   5.6768745106212616E-008
 chl           7   2.8358574553328022E-005   1.2453953870004538E-004  0.22770739998989323     
 chl2c           8  0.49578364991761120        4.7969800906495587E-002  0.49578364999999996        2.2130877952259782E-017   3.3012989522861830E-008
 chl           8   6.1744667055764097E-005   1.2453953870004538E-004  0.49578364991761120     
 chl2c           9  0.28700202499820504        2.4803669054600401E-002  0.28700202499999999        1.6254517937019266E-016   3.7295787669560250E-006
 chl           9   3.5743099799255346E-005   1.2453953870004538E-004  0.28700202499820504     
 chl2c          10  0.39094662499629651        2.5387016219684602E-002  0.39094662499999999        1.6254517937019266E-016   3.3540701865400511E-006
 chl          10   4.8688312333378398E-005   1.2453953870004538E-004  0.39094662499629651     
 chl2c          11  0.46344892819995892        2.1820572217820047E-002  0.49737575000000001        5.8190072833161415E-017   1.9767976522052521E-016
 chl          11   5.7717715729053339E-005   1.2453953870004538E-004  0.46344892819995892     
 chl2c          12  0.14070445614488419        4.5290941298723353E-002  0.30768942500000002        2.2130877952259782E-017   2.8688754204895274E-018
 chl          12   1.7523268061324645E-005   1.2453953870004538E-004  0.14070445614488419     
 chl2c          13  0.68233528963025714        3.7935816987997487E-002  0.75666275000000005        5.8190072833161415E-017   2.0210162182041122E-016
 chl          13   8.5099653948081971E-005   1.2471823638814819E-004  0.68233528963025714     
 chl2c          14  0.35334655291533396        4.6856526101924839E-002  0.39804095000000000        2.2130877952259782E-017   3.4821235577366092E-017
 chl          14   4.4005616701326870E-005   1.2453953870004538E-004  0.35334655291533396     
 chl2c          15  0.25607262499952999        2.0954299823745293E-002  0.25607262500000000        5.8190072833161415E-017   4.0594519982060446E-006
 chl          15   3.1891166591151176E-005   1.2453953870004538E-004  0.25607262499952999     
 chl2c          16  0.65832549173173305        3.7823443882273475E-002  0.71433214999999994        5.8190072833161415E-017   2.4429811370381352E-016
 chl          16   8.2105194307870738E-005   1.2471823640292592E-004  0.65832549173173305     
 chl2c          17  0.58238454199549361        3.7542254757581245E-002  0.62580860000000005        5.8190072833161415E-017   2.4419674186815939E-016
 chl          17   7.2633972986003704E-005   1.2471823640292592E-004  0.58238454199549361     
 chl2c          18  0.40248396387286134        2.5694475239060960E-002  0.47925950000000000        1.6254517937019266E-016   2.0419286016454985E-016
 chl          18   5.0125167194891882E-005   1.2453953870004538E-004  0.40248396387286134     
 chl2c          19  0.63367129999679361        3.7570220750293731E-002  0.63367130000000005        5.8190072833161415E-017   3.6434301625480333E-006
 chl          19   7.9030366994749498E-005   1.2471823640292592E-004  0.63367129999679361     
 chl2c          20  0.47486878946560107        3.7020645196759419E-002  0.50678202500000002        5.8190072833161415E-017   2.1940316936617674E-016
 chl          20   5.9224797937924605E-005   1.2471823638814819E-004  0.47486878946560107     
 chl2c          21  0.71973184999563378        3.7838475073783531E-002  0.71973185000000006        5.8190072833161415E-017   3.4518039825384046E-006
 chl          21   8.9763687003834667E-005   1.2471823638814819E-004  0.71973184999563378     
 chl2c          22  0.64616892499753953        3.7613353106285476E-002  0.64616892500000001        5.8190072833161415E-017   4.9371444301915075E-006
 chl          22   8.0589048744067644E-005   1.2471823640292592E-004  0.64616892499753953     
 chl2c          23  0.11965413321682208        3.2286562315070731E-002  0.41564179999999995        4.7384435437082401E-017   3.9808794068212183E-018
 chl          23   1.4901670554376799E-005   1.2453953870004538E-004  0.11965413321682208     
 chl2c          24  0.52775532253851676        3.7348402796863071E-002  0.57597492500000003        5.8190072833161415E-017   1.8341357600426064E-016
 chl          24   6.5820713071462124E-005   1.2471823638814819E-004  0.52775532253851676     
 chl2c          25  0.14646941637096123        4.5426679235459781E-002  0.31406487500000002        2.2130877952259782E-017   3.0371953051375974E-018
 chl          25   1.8241233548504385E-005   1.2453953870004538E-004  0.14646941637096123     
 chl2c          26  0.16568291524058890        4.7955660680174553E-002  0.49427735000000000        2.2130877952259782E-017   2.7577626209970671E-018
 chl          26   2.0634073834541660E-005   1.2453953870004538E-004  0.16568291524058890     
 chl2c          27  0.28169809203527513        4.5333133499525620E-002  0.30964730000000001        2.2130877952259782E-017   3.4534275176961720E-017
 chl          27   3.5082550434756091E-005   1.2453953870004538E-004  0.28169809203527513     
 chl2c          28  0.24008389096458527        3.1209236063453518E-002  0.28776342500000002        4.7384435437082401E-017   3.4329883314038798E-017
 chl          28   2.9899937030041442E-005   1.2453953870004538E-004  0.24008389096458527     
 chl2c          29  0.68676297499662664        3.7743217595736761E-002  0.68676297499999994        5.8190072833161415E-017   4.0680258485787992E-006
 chl          29   8.5651867058257180E-005   1.2471823638814819E-004  0.68676297499662664     
 chl2c          30  0.34008273047883930        2.5380056985171612E-002  0.38930277499999999        1.6254517937019266E-016   2.1861208912391579E-016
 chl          30   4.2353746373686508E-005   1.2453953870004538E-004  0.34008273047883930     
 chl2c          31  0.63559384999562540        3.7576959810037038E-002  0.63559385000000002        5.8190072833161415E-017   2.6868175467989992E-006
 chl          31   7.9270144030607609E-005   1.2471823638814819E-004  0.63559384999562540     
 chl2c          32  0.24722667499961370        2.0893126428578448E-002  0.24722667500000001        5.8190072833161415E-017   4.6035187155945624E-006
 chl          32   3.0789496058797933E-005   1.2453953870004538E-004  0.24722667499961370     
 chl2c          33  0.60343137499724897        3.7458922634011876E-002  0.60343137499999999        5.8190072833161415E-017   3.8510715389008451E-006
 chl          33   7.5258896870932193E-005   1.2471823638814819E-004  0.60343137499724897     
 chl2c          34  0.38241019998534354        2.5350269098008315E-002  0.38241020000000003        1.6254517937019266E-016   8.1090764614361765E-007
 chl          34   4.7625189900366786E-005   1.2453953870004538E-004  0.38241019998534354     
 chl2c          35  0.40097535778277055        2.5740370148566064E-002  0.49574644999999995        1.6254517937019266E-016   1.7046903752677346E-016
 chl          35   4.9937286088351895E-005   1.2453953870004538E-004  0.40097535778277055     
 chl2c          36  0.63005682334096058        3.7770393924465726E-002  0.69587337500000002        5.8190072833161415E-017   1.9381782694165565E-016
 chl          36   7.8579575840714448E-005   1.2471823640292592E-004  0.63005682334096058     
 chl2c          37  0.31291750801275359        2.1353674699533250E-002  0.33194060000000003        5.8190072833161415E-017   1.5886492965885735E-016
 chl          37   3.8970602099076083E-005   1.2453953870004538E-004  0.31291750801275359     
 chl2c          38  0.36609943550321311        2.1543295686358745E-002  0.38455722500000000        5.8190072833161415E-017   2.2192143440539839E-016
 chl          38   4.5593854815917176E-005   1.2453953870004538E-004  0.36609943550321311     
 chl2c          39  0.39146481725059762        2.5670077108751441E-002  0.47091117500000002        1.6254517937019266E-016   1.8858269573093429E-016
 chl          39   4.8752847757686998E-005   1.2453953870004538E-004  0.39146481725059762     
 chl2c          40  0.61949390741983001        3.7687445774703773E-002  0.66875547499999999        5.8190072833161415E-017   2.4468935015303518E-016
 chl          40   7.7262187595758663E-005   1.2471823640292592E-004  0.61949390741983001     
 chl2c          41  0.35533145643862063        2.5582381488167241E-002  0.44304987499999998        1.6254517937019266E-016   1.4586113189634180E-016
 chl          41   4.4252815670481085E-005   1.2453953870004538E-004  0.35533145643862063     
 chl2c          42  0.69015484807427563        3.7949995630725070E-002  0.76234377499999995        5.8190072833161415E-017   2.1205363447232167E-016
 chl          42   8.6074895486554012E-005   1.2471823638814819E-004  0.69015484807427563     
 chl2c          43  0.29539924999834466        2.1185090152268007E-002  0.29539925000000000        5.8190072833161415E-017   1.5337644615796839E-006
 chl          43   3.6788886327133223E-005   1.2453953870004538E-004  0.29539924999834466     
 chl2c          44  0.56841694649053021        3.7536352708156646E-002  0.62417262500000004        5.8190072833161415E-017   1.8514054360841047E-016
 chl          44   7.0891959099435325E-005   1.2471823638814819E-004  0.56841694649053021     
 chl2c          45  0.17629009184470093        4.6544927192009838E-002  0.37662252499999999        2.2130877952259782E-017   3.6673433861492916E-018
 chl          45   2.1955086715727686E-005   1.2453953870004538E-004  0.17629009184470093     
 chl2c          46  0.51876034999785225        3.7083195475449568E-002  0.51876034999999998        5.8190072833161415E-017   3.6456581476554942E-006
 chl          46   6.4698875959830627E-005   1.2471823638814819E-004  0.51876034999785225     
 chl2c          47  0.57427142541890541        3.7519784612651236E-002  0.61962282499999999        5.8190072833161415E-017   2.2828260800749563E-016
 chl          47   7.1622119386353857E-005   1.2471823638814819E-004  0.57427142541890541     
 chl2c          48  0.65283118412405539        3.7823212136301673E-002  0.71424949999999998        5.8190072833161415E-017   2.2088785500630731E-016
 chl          48   8.1419953943138635E-005   1.2471823638814819E-004  0.65283118412405539     
 chl2c          49  0.49577571842146029        3.7152990741888416E-002  0.53276120000000005        5.8190072833161415E-017   2.0778082589960206E-016
 chl          49   6.1832273245591681E-005   1.2471823638814819E-004  0.49577571842146029     
 chl2c          50  0.38132569999886490        2.1533072915600981E-002  0.38132569999999999        5.8190072833161415E-017   3.7271784214378648E-006
 chl          50   4.7490126772330529E-005   1.2453953870004538E-004  0.38132569999886490     
 chl2c          51  0.21670334476034525        2.0700971146093840E-002  0.22275920000000002        5.8190072833161415E-017   2.3192346137165645E-016
 chl          51   2.6988134591210294E-005   1.2453953870004538E-004  0.21670334476034525     
 chl2c          52  0.59141244474728472        3.7581825176985564E-002  0.63698869999999996        5.8190072833161415E-017   2.4049300745223515E-016
 chl          52   7.3759917095624211E-005   1.2471823640292592E-004  0.59141244474728472     
 chl2c          53  0.68432929145098975        3.7925801262726190E-002  0.75269794999999995        5.8190072833161415E-017   2.1920361353296352E-016
 chl          53   8.5348342348631333E-005   1.2471823640292592E-004  0.68432929145098975     
 chl2c          54  0.47947879917345143        3.7082433371327092E-002  0.51861124999999997        5.8190072833161415E-017   1.8488139074695497E-016
 chl          54   5.9799750218419947E-005   1.2471823638814819E-004  0.47947879917345143     
 chl2c          55  0.57808279999801682        3.7357235588660491E-002  0.57808280000000001        5.8190072833161415E-017   4.9026995069658549E-006
 chl          55   7.2097467302075248E-005   1.2471823638814819E-004  0.57808279999801682     
 chl2c          56  0.57359020792886228        3.7507394187257688E-002  0.61626080000000005        5.8190072833161415E-017   2.4102190139687379E-016
 chl          56   7.1537159150875275E-005   1.2471823640292592E-004  0.57359020792886228     
 chl2c          57  0.68163462499218730        3.7727617852646313E-002  0.68163462500000005        5.8190072833161415E-017   1.7303017273958807E-006
 chl          57   8.5012268290122356E-005   1.2471823638814819E-004  0.68163462499218730     
 chl2c          58  0.69416802499677777        3.7765358178394853E-002  0.69416802499999997        5.8190072833161415E-017   4.3510065371490954E-006
 chl          58   8.6575411844900309E-005   1.2471823640292592E-004  0.69416802499677777     
 chl2c          59  0.53705127499245309        3.7173699120809672E-002  0.53705127500000005        5.8190072833161415E-017   1.1119303586906079E-006
 chl          59   6.6980087867065145E-005   1.2471823638814819E-004  0.53705127499245309     
 chl2c          60  0.64452154999615052        3.7607757740906807E-002  0.64452155000000000        5.8190072833161415E-017   3.1397228675454848E-006
 chl          60   8.0383591029675565E-005   1.2471823638814819E-004  0.64452154999615052     
 chl2c          61  0.64610952179706482        3.7805373434125003E-002  0.70794139999999994        5.8190072833161415E-017   2.1523352478644730E-016
 chl          61   8.0581640072119716E-005   1.2471823638814819E-004  0.64610952179706482     
 chl2c          62  0.68093180899647276        3.7956103087269030E-002  0.76481592499999995        5.8190072833161415E-017   1.8063409079460284E-016
 chl          62   8.4924614318631462E-005   1.2471823638814819E-004  0.68093180899647276     
 chl2c          63  0.72597904999592255        3.7855601011927406E-002  0.72597904999999996        5.8190072833161415E-017   3.7608713867143889E-006
 chl          63   9.0542826780963043E-005   1.2471823640292592E-004  0.72597904999592255     
 chl2c          64  0.37957535043285995        2.5708982294816416E-002  0.48435739999999999        1.6254517937019266E-016   1.4260053346678803E-016
 chl          64   4.7272139044816450E-005   1.2453953870004538E-004  0.37957535043285995     
 chl2c          65  0.76379974998004874        3.7953597170552002E-002  0.76379975000000000        5.8190072833161415E-017   8.5075748087994695E-007
 chl          65   9.5259757782507429E-005   1.2471823640292592E-004  0.76379974998004874     
 chl2c          66   9.3572939689636273E-002   3.1840477731474713E-002  0.35213202499999996        4.7384435437082401E-017   3.0192683183363157E-018
 chl          66   1.1653530743754469E-005   1.2453953870004538E-004   9.3572939689636273E-002
 chl2c          67  0.68442740864957097        3.7937587124568600E-002  0.75736760000000003        5.8190072833161415E-017   2.0676933071444103E-016
 chl          67   8.5360579342484884E-005   1.2471823638814819E-004  0.68442740864957097     
 chl2c          68  0.72590779999641353        3.7855407263856986E-002  0.72590779999999999        5.8190072833161415E-017   4.2746904804082793E-006
 chl          68   9.0533940606680566E-005   1.2471823640292592E-004  0.72590779999641353     
 chl2c          69  0.45524217499801961        2.1732330561541505E-002  0.45524217500000003        5.8190072833161415E-017   3.0447155006961054E-006
 chl          69   5.6695650471058695E-005   1.2453953870004538E-004  0.45524217499801961     
 chl2c          70  0.38195444068725315        3.2658010878182209E-002  0.48694062500000002        4.7384435437082401E-017   4.1972142206230082E-017
 chl          70   4.7568429847624355E-005   1.2453953870004538E-004  0.38195444068725315     
 chl2c          71  0.13425775898471581        4.3481058864416305E-002  0.23986107500000001        2.2130877952259782E-017   3.3743510424779172E-018
 chl          71   1.6720399370858381E-005   1.2453953870004538E-004  0.13425775898471581     
 chl2c          72  0.58377238449240332        3.7549776402781669E-002  0.62790522500000001        5.8190072833161415E-017   2.4165437830270822E-016
 chl          72   7.2807062254623314E-005   1.2471823640292592E-004  0.58377238449240332     
 chl2c          73  0.11007869775975276        3.1852614277819484E-002  0.35362212500000001        4.7384435437082401E-017   3.7867969128415216E-018
 chl          73   1.3709150239701328E-005   1.2453953870004538E-004  0.11007869775975276     
 chl2c          74  0.64719589999668603        3.7616827685877569E-002  0.64719590000000005        5.8190072833161415E-017   3.6773381754173937E-006
 chl          74   8.0717131245227000E-005   1.2471823638814819E-004  0.64719589999668603     
 chl2c          75  0.64732865377399962        3.7826830779512356E-002  0.71554212500000003        5.8190072833161415E-017   1.9756444669084778E-016
 chl          75   8.0733688071773469E-005   1.2471823640292592E-004  0.64732865377399962     
 chl2c          76  0.55513977499797762        3.7257729557919804E-002  0.55513977500000000        5.8190072833161415E-017   4.4334781201503909E-006
 chl          76   6.9236053694864878E-005   1.2471823640292592E-004  0.55513977499797762     
 chl2c          77  0.52973029999653987        3.7138172437479272E-002  0.52973029999999999        5.8190072833161415E-017   2.3595581209161385E-006
 chl          77   6.6067028776933110E-005   1.2471823638814819E-004  0.52973029999653987     
 chl2c          78  0.45117492498743850        4.7515248899399322E-002  0.45117492500000000        2.2130877952259782E-017   1.7931460896216410E-007
 chl          78   5.6189117030963168E-005   1.2453953870004538E-004  0.45117492498743850     
 prod   1.3775366488737041E-008   2.0766170695341900E-010   10.000000000000000     
 dcdom   1.2340968607165358E-012  -1.6530670689353890E-010
 chl2c           1  0.60826437499935393        3.7477407714772232E-002  0.60826437499999997        8.7925044247448376E-018   2.5180114323352241E-006
 chl           1   4.9867056556757902E-005   8.1982536880958828E-005  0.60826437499935393     
 chl2c           2  0.48302389995670214        3.2640259920490348E-002  0.48302390000000001        7.0921748346755156E-018   1.9108207726543551E-008
 chl           2   3.9542000306617574E-005   8.1863444666324146E-005  0.48302389995670214     
 chl2c           3  0.74401177445249755        3.7922212503796585E-002  0.75128689999999998        8.7925044247448376E-018   3.3777517861065513E-016
 chl           3   6.0995972738919498E-005   8.1982536880958828E-005  0.74401177445249755     
 chl2c           4  0.77318742499962856        3.7976509103863923E-002  0.77318742499999993        8.7925044247448376E-018   7.0760788531811915E-006
 chl           4   6.3387866585925640E-005   8.1982536880958828E-005  0.77318742499962856     
 chl2c           5  0.48489679999873936        2.5710500362372445E-002  0.48489679999999996        2.5030419776942268E-017   2.3343575918954286E-006
 chl           5   3.9695322355574449E-005   8.1863444666324146E-005  0.48489679999873936     
 chl2c           6  0.28360085191581147        3.1261039902252048E-002  0.29222855000000003        7.0921748346755156E-018   3.4063139466400501E-017
 chl           6   2.3216542648132422E-005   8.1863444666324146E-005  0.28360085191581147     
 chl2c           7  0.22770739999789444        4.3064391842467263E-002  0.22770740000000000        3.2878264159123048E-018   4.0481841521067369E-008
 chl           7   1.8640912139840172E-005   8.1863444666324146E-005  0.22770739999789444     
 chl2c           8  0.49578364998598240        4.7969800906495587E-002  0.49578364999999996        3.2878264159123048E-018   2.8826424113750280E-008
 chl           8   4.0586557397095691E-005   8.1863444666324146E-005  0.49578364998598240     
 chl2c           9  0.28700202499979832        2.4803669054600401E-002  0.28700202499999999        2.5030419776942268E-017   5.1110600712610934E-006
 chl           9   2.3494974392693968E-005   8.1863444666324146E-005  0.28700202499979832     
 chl2c          10  0.39094662499951771        2.5387016219684602E-002  0.39094662499999999        2.5030419776942268E-017   3.9657856036723042E-006
 chl          10   3.2004237403134193E-005   8.1863444666324146E-005  0.39094662499951771     
 chl2c          11  0.49331069883650536        2.1820572217820047E-002  0.49737575000000001        8.7925044247448376E-018   2.6535160895136224E-016
 chl          11   4.0384113097507953E-005   8.1863444666324146E-005  0.49331069883650536     
 chl2c          12  0.24768108387077092        4.5290941298723353E-002  0.30768942500000002        3.2878264159123048E-018   2.0877220263088198E-018
 chl          12   2.0276026704350045E-005   8.1863444666324146E-005  0.24768108387077092     
 chl2c          13  0.74822332591416163        3.7935816987997487E-002  0.75666275000000005        8.7925044247448376E-018   2.9491943050722896E-016
 chl          13   6.1341246404615890E-005   8.1982536871154875E-005  0.74822332591416163     
 chl2c          14  0.38836752506989214        4.6856526101924839E-002  0.39804095000000000        3.2878264159123048E-018   2.6270556979569501E-017
 chl          14   3.1793103398756373E-005   8.1863444666324146E-005  0.38836752506989214     
 chl2c          15  0.25607262499994127        2.0954299823745293E-002  0.25607262500000000        8.7925044247448376E-018   4.9060526279316462E-006
 chl          15   2.0962987167243064E-005   8.1863444666324146E-005  0.25607262499994127     
 chl2c          16  0.70793644227709729        3.7823443882273475E-002  0.71433214999999994        8.7925044247448376E-018   3.4760695475292990E-016
 chl          16   5.8038425488356912E-005   8.1982536880958828E-005  0.70793644227709729     
 chl2c          17  0.62089266154700606        3.7542254757581245E-002  0.62580860000000005        8.7925044247448376E-018   3.4748352366433013E-016
 chl          17   5.0902355524394112E-005   8.1982536880958828E-005  0.62089266154700606     
 chl2c          18  0.46893270855460212        2.5694475239060960E-002  0.47925950000000000        2.5030419776942268E-017   2.7236668669818416E-016
 chl          18   3.8388446838989176E-005   8.1863444666324146E-005  0.46893270855460212     
 chl2c          19  0.63367129999967209        3.7570220750293731E-002  0.63367130000000005        8.7925044247448376E-018   5.3821137206270300E-006
 chl          19   5.1949980722628243E-005   8.1982536880958828E-005  0.63367129999967209     
 chl2c          20  0.50324339242889848        3.7020645196759419E-002  0.50678202500000002        8.7925044247448376E-018   3.1684467536066009E-016
 chl          20   4.1257169974967235E-005   8.1982536871154875E-005  0.50324339242889848     
 chl2c          21  0.71973184999956852        3.7838475073783531E-002  0.71973185000000006        8.7925044247448376E-018   5.2772182419986439E-006
 chl          21   5.9005442929934133E-005   8.1982536871154875E-005  0.71973184999956852     
 chl2c          22  0.64616892499973455        3.7613353106285476E-002  0.64616892500000001        8.7925044247448376E-018   6.9145842435729072E-006
 chl          22   5.2974567725120257E-005   8.1982536880958828E-005  0.64616892499973455     
 chl2c          23  0.27553365141162678        3.2286562315070731E-002  0.41564179999999995        7.0921748346755156E-018   2.8985440694263187E-018
 chl          23   2.2556133826045954E-005   8.1863444666324146E-005  0.27553365141162678     
 chl2c          24  0.57063747467496251        3.7348402796863071E-002  0.57597492500000003        8.7925044247448376E-018   2.7071518669970378E-016
 chl          24   4.6782307807602818E-005   8.1982536871154875E-005  0.57063747467496251     
 chl2c          25  0.25459709919541623        4.5426679235459781E-002  0.31406487500000002        3.2878264159123048E-018   2.2103956035646222E-018
 chl          25   2.0842195542190595E-005   8.1863444666324146E-005  0.25459709919541623     
 chl2c          26  0.35182201796019785        4.7955660680174553E-002  0.49427735000000000        3.2878264159123048E-018   2.0067529050360967E-018
 chl          26   2.8801362299679157E-005   8.1863444666324146E-005  0.35182201796019785     
 chl2c          27  0.30371282040980296        4.5333133499525620E-002  0.30964730000000001        3.2878264159123048E-018   2.6051136027719937E-017
 chl          27   2.4862977668071148E-005   8.1863444666324146E-005  0.30371282040980296     
 chl2c          28  0.27685351492910709        3.1209236063453518E-002  0.28776342500000002        7.0921748346755156E-018   2.5894879971975300E-017
 chl          28   2.2664182400076304E-005   8.1863444666324146E-005  0.27685351492910709     
 chl2c          29  0.68676297499962469        3.7743217595736761E-002  0.68676297499999994        8.7925044247448376E-018   5.5247636134672599E-006
 chl          29   5.6302570919650745E-005   8.1982536871154875E-005  0.68676297499962469     
 chl2c          30  0.38281723695066772        2.5380056985171612E-002  0.38930277499999999        2.5030419776942268E-017   2.8758823112993362E-016
 chl          30   3.1338737694426084E-005   8.1863444666324146E-005  0.38281723695066772     
 chl2c          31  0.63559384999943236        3.7576959810037038E-002  0.63559385000000002        8.7925044247448376E-018   3.1287317173491745E-006
 chl          31   5.2107596242657746E-005   8.1982536871154875E-005  0.63559384999943236     
 chl2c          32  0.24722667499995460        2.0893126428578448E-002  0.24722667500000001        8.7925044247448376E-018   5.9156844794748993E-006
 chl          32   2.0238827228898088E-005   8.1863444666324146E-005  0.24722667499995460     
 chl2c          33  0.60343137499971544        3.7458922634011876E-002  0.60343137499999999        8.7925044247448376E-018   5.6248994425795463E-006
 chl          33   4.9470834950125856E-005   8.1982536871154875E-005  0.60343137499971544     
 chl2c          34  0.38241019999658488        2.5350269098008315E-002  0.38241020000000003        2.5030419776942268E-017   5.3590475741397361E-007
 chl          34   3.1305416247258374E-005   8.1863444666324146E-005  0.38241019999658488     
 chl2c          35  0.48299768342938215        2.5740370148566064E-002  0.49574644999999995        2.5030419776942268E-017   2.3505777929967165E-016
 chl          35   3.9539854131383970E-005   8.1863444666324146E-005  0.48299768342938215     
 chl2c          36  0.68846401464249085        3.7770393924465726E-002  0.69587337500000002        8.7925044247448376E-018   2.8425842648174633E-016
 chl          36   5.6442026471640986E-005   8.1982536880958828E-005  0.68846401464249085     
 chl2c          37  0.32976929836029750        2.1353674699533250E-002  0.33194060000000003        8.7925044247448376E-018   2.2163229032573205E-016
 chl          37   2.6996050708970752E-005   8.1863444666324146E-005  0.32976929836029750     
 chl2c          38  0.38233615868299137        2.1543295686358745E-002  0.38455722500000000        8.7925044247448376E-018   2.9102307257601531E-016
 chl          38   3.1299354970279990E-005   8.1863444666324146E-005  0.38233615868299137     
 chl2c          39  0.46028978306161644        2.5670077108751441E-002  0.47091117500000002        2.5030419776942268E-017   2.5540361155612488E-016
 chl          39   3.7680907186138986E-005   8.1863444666324146E-005  0.46028978306161644     
 chl2c          40  0.66315426994663096        3.7687445774703773E-002  0.66875547499999999        8.7925044247448376E-018   3.4808318872550187E-016
 chl          40   5.4367069393664998E-005   8.1982536880958828E-005  0.66315426994663096     
 chl2c          41  0.43144837856463769        2.5582381488167241E-002  0.44304987499999998        2.5030419776942268E-017   2.0620803607744258E-016
 chl          41   3.5319850465001488E-005   8.1863444666324146E-005  0.43144837856463769     
 chl2c          42  0.75412683452635731        3.7949995630725070E-002  0.76234377499999995        8.7925044247448376E-018   3.0758681299723004E-016
 chl          42   6.1825231017084394E-005   8.1982536871154875E-005  0.75412683452635731     
 chl2c          43  0.29539924999986200        2.1185090152268007E-002  0.29539925000000000        8.7925044247448376E-018   2.7796521062414272E-006
 chl          43   2.4182400156837356E-005   8.1863444666324146E-005  0.29539924999986200     
 chl2c          44  0.61796071554253951        3.7536352708156646E-002  0.62417262500000004        8.7925044247448376E-018   2.7297512133801966E-016
 chl          44   5.0661987146891493E-005   8.1982536871154875E-005  0.61796071554253951     
 chl2c          45  0.30572496719029940        4.6544927192009838E-002  0.37662252499999999        3.2878264159123048E-018   2.6698373670078001E-018
 chl          45   2.5027698934696841E-005   8.1863444666324146E-005  0.30572496719029940     
 chl2c          46  0.51876034999974507        3.7083195475449568E-002  0.51876034999999998        8.7925044247448376E-018   4.6409069164467192E-006
 chl          46   4.2529289521147310E-005   8.1982536871154875E-005  0.51876034999974507     
 chl2c          47  0.61451807198691444        3.7519784612651236E-002  0.61962282499999999        8.7925044247448376E-018   3.2792153065920021E-016
 chl          47   5.0379750494658220E-005   8.1982536871154875E-005  0.61451807198691444     
 chl2c          48  0.70728105738735247        3.7823212136301673E-002  0.71424949999999998        8.7925044247448376E-018   3.1870497575120248E-016
 chl          48   5.7984695365528029E-005   8.1982536871154875E-005  0.70728105738735247     
 chl2c          49  0.52866342901699459        3.7152990741888416E-002  0.53276120000000005        8.7925044247448376E-018   3.0216681999427486E-016
 chl          49   4.3341169061816925E-005   8.1982536871154875E-005  0.52866342901699459     
 chl2c          50  0.38132569999987204        2.1533072915600981E-002  0.38132569999999999        8.7925044247448376E-018   4.9976762529380596E-006
 chl          50   3.1216635341786845E-005   8.1863444666324146E-005  0.38132569999987204     
 chl2c          51  0.22203745872420513        2.0700971146093840E-002  0.22275920000000002        8.7925044247448376E-018   3.0127490246878395E-016
 chl          51   1.8176751216120200E-005   8.1863444666324146E-005  0.22203745872420513     
 chl2c          52  0.63182969174293335        3.7581825176985564E-002  0.63698869999999996        8.7925044247448376E-018   3.4296368435324635E-016
 chl          52   5.1799001005799878E-005   8.1982536880958828E-005  0.63182969174293335     
 chl2c          53  0.74491211549354264        3.7925801262726190E-002  0.75269794999999995        8.7925044247448376E-018   3.1659438105692899E-016
 chl          53   6.1069784981522418E-005   8.1982536880958828E-005  0.74491211549354264     
 chl2c          54  0.51431028339698681        3.7082433371327092E-002  0.51861124999999997        8.7925044247448376E-018   2.7263629484653205E-016
 chl          54   4.2164461771807585E-005   8.1982536871154875E-005  0.51431028339698681     
 chl2c          55  0.57808279999978629        3.7357235588660491E-002  0.57808280000000001        8.7925044247448376E-018   6.8721890600838441E-006
 chl          55   4.7392694465562926E-005   8.1982536871154875E-005  0.57808279999978629     
 chl2c          56  0.61143982747420789        3.7507394187257688E-002  0.61626080000000005        8.7925044247448376E-018   3.4361032936839178E-016
 chl          56   5.0127388206391352E-005   8.1982536880958828E-005  0.61143982747420789     
 chl2c          57  0.68163462499880845        3.7727617852646313E-002  0.68163462500000005        8.7925044247448376E-018   1.7142668778160053E-006
 chl          57   5.5882135776620637E-005   8.1982536871154875E-005  0.68163462499880845     
 chl2c          58  0.69416802499966646        3.7765358178394853E-002  0.69416802499999997        8.7925044247448376E-018   6.3504885572385002E-006
 chl          58   5.6909655711117504E-005   8.1982536880958828E-005  0.69416802499966646     
 chl2c          59  0.53705127499943228        3.7173699120809672E-002  0.53705127500000005        8.7925044247448376E-018   2.2332907205566430E-006
 chl          59   4.4028825954341691E-005   8.1982536871154875E-005  0.53705127499943228     
 chl2c          60  0.64452154999962130        3.7607757740906807E-002  0.64452155000000000        8.7925044247448376E-018   4.8234010526953245E-006
 chl          60   5.2839511737097847E-005   8.1982536871154875E-005  0.64452154999962130     
 chl2c          61  0.70094039793641860        3.7805373434125003E-002  0.70794139999999994        8.7925044247448376E-018   3.1160240098149959E-016
 chl          61   5.7464872018304412E-005   8.1982536871154875E-005  0.70094039793641860     
 chl2c          62  0.75530678390752926        3.7956103087269030E-002  0.76481592499999995        8.7925044247448376E-018   2.6706785369716329E-016
 chl          62   6.1921966260732430E-005   8.1982536871154875E-005  0.75530678390752926     
 chl2c          63  0.72597904999957652        3.7855601011927406E-002  0.72597904999999996        8.7925044247448376E-018   5.4718358882911036E-006
 chl          63   5.9517604241393736E-005   8.1982536880958828E-005  0.72597904999957652     
 chl2c          64  0.47026443934181039        2.5708982294816416E-002  0.48435739999999999        2.5030419776942268E-017   2.0227582280453467E-016
 chl          64   3.8497466908598245E-005   8.1863444666324146E-005  0.47026443934181039     
 chl2c          65  0.76379974999856060        3.7953597170552002E-002  0.76379975000000000        8.7925044247448376E-018   1.7819248897012666E-006
 chl          65   6.2618241173924123E-005   8.1982536880958828E-005  0.76379974999856060     
 chl2c          66  0.22453437630805331        3.1840477731474713E-002  0.35213202499999996        7.0921748346755156E-018   2.1973292218421495E-018
 chl          66   1.8381157490581925E-005   8.1863444666324146E-005  0.22453437630805331     
 chl2c          67  0.74907818955868233        3.7937587124568600E-002  0.75736760000000003        8.7925044247448376E-018   3.0087966053680257E-016
 chl          67   6.1411330294872614E-005   8.1982536871154875E-005  0.74907818955868233     
 chl2c          68  0.72590779999963251        3.7855407263856986E-002  0.72590779999999999        8.7925044247448376E-018   6.3022609018358616E-006
 chl          68   5.9511762985645557E-005   8.1982536880958828E-005  0.72590779999963251     
 chl2c          69  0.45524217499975933        2.1732330561541505E-002  0.45524217500000003        8.7925044247448376E-018   3.7861060995166505E-006
 chl          69   3.7267692602869853E-005   8.1863444666324146E-005  0.45524217499975933     
 chl2c          70  0.46182733754373806        3.2658010878182209E-002  0.48694062500000002        7.0921748346755156E-018   3.1754224850773508E-017
 chl          70   3.7806776692407604E-005   8.1863444666324146E-005  0.46182733754373806     
 chl2c          71  0.20668089650993257        4.3481058864416305E-002  0.23986107500000001        3.2878264159123048E-018   2.4561805010678761E-018
 chl          71   1.6919610135027132E-005   8.1863444666324146E-005  0.20668089650993257     
 chl2c          72  0.62291222307232363        3.7549776402781669E-002  0.62790522500000001        8.7925044247448376E-018   3.4438308807021861E-016
 chl          72   5.1067924301626825E-005   8.1982536880958828E-005  0.62291222307232363     
 chl2c          73  0.24306613067628050        3.1852614277819484E-002  0.35362212500000001        7.0921748346755156E-018   2.7569635214277800E-018
 chl          73   1.9898230738875203E-005   8.1863444666324146E-005  0.24306613067628050     
 chl2c          74  0.64719589999966842        3.7616827685877569E-002  0.64719590000000005        8.7925044247448376E-018   5.5520442856140074E-006
 chl          74   5.3058761734583077E-005   8.1982536871154875E-005  0.64719589999966842     
 chl2c          75  0.70783992955328645        3.7826830779512356E-002  0.71554212500000003        8.7925044247448376E-018   2.8909350138810764E-016
 chl          75   5.8030513130417604E-005   8.1982536880958828E-005  0.70783992955328645     
 chl2c          76  0.55513977499978351        3.7257729557919804E-002  0.55513977500000000        8.7925044247448376E-018   6.2586372319277778E-006
 chl          76   4.5511767078006940E-005   8.1982536880958828E-005  0.55513977499978351     
 chl2c          77  0.52973029999968102        3.7138172437479272E-002  0.52973029999999999        8.7925044247448376E-018   3.8678613143055416E-006
 chl          77   4.3428633851491779E-005   8.1982536871154875E-005  0.52973029999968102     
 chl2c          78  0.45117492499388145        4.7515248899399322E-002  0.45117492500000000        3.2878264159123048E-018   5.4691197542373543E-008
 chl          78   3.6934733507069559E-005   8.1863444666324146E-005  0.45117492499388145     
 prod   1.0010270857753201E-008   3.0893739040959841E-011   10.000000000000000     
 dcdom   1.2340970463873299E-012  -1.3770090260973752E-010
 chl2c           1  0.60826437499996822        3.7477407714772232E-002  0.60826437499999997        1.1348015956267662E-018   6.6184866834668231E-006
 chl           1   1.1000734188372686E-005   1.8085448762921979E-005  0.60826437499996822     
 chl2c           2  0.48302389996245615        3.2640259920490348E-002  0.48302390000000001        9.0062192272651633E-019   2.7984029818001582E-009
 chl           2   8.6495553439632048E-006   1.7907095993874230E-005  0.48302389996245615     
 chl2c           3  0.75073747737166829        3.7922212503796585E-002  0.75128689999999998        1.1348015956267662E-018   5.8247503063492767E-016
 chl           3   1.3577424181410605E-005   1.8085448762921979E-005  0.75073747737166829     
 chl2c           4  0.77318742499997062        3.7976509103863923E-002  0.77318742499999993        1.1348015956267662E-018   1.1574341433441930E-005
 chl           4   1.3983441558972549E-005   1.8085448762921979E-005  0.77318742499997062     
 chl2c           5  0.48489679999972285        2.5710500362372445E-002  0.48489679999999996        3.3296188847380960E-018   1.4122669496738029E-006
 chl           5   8.6830935447174702E-006   1.7907095993874230E-005  0.48489679999972285     
 chl2c           6  0.28997596873413628        3.1261039902252048E-002  0.29222855000000003        9.0062192272651633E-019   1.6940128557500750E-017
 chl           6   5.1926275080388503E-006   1.7907095993874230E-005  0.28997596873413628     
 chl2c           7  0.22770739999936385        4.3064391842467263E-002  0.22770740000000000        4.1224878432561419E-019   1.6800502566976683E-008
 chl           7   4.0775782703041254E-006   1.7907095993874230E-005  0.22770739999936385     
 chl2c           8  0.49578364999676189        4.7969800906495587E-002  0.49578364999999996        4.1224878432561419E-019   1.5646994868318633E-008
 chl           8   8.8780454126853584E-006   1.7907095993874230E-005  0.49578364999676189     
 chl2c           9  0.28700202499998206        2.4803669054600401E-002  0.28700202499999999        3.3296188847380960E-018   7.6667072166481290E-006
 chl           9   5.1393728121109701E-006   1.7907095993874230E-005  0.28700202499998206     
 chl2c          10  0.39094662499993105        2.5387016219684602E-002  0.39094662499999999        3.3296188847380960E-018   3.6927465825659353E-006
 chl          10   7.0007187423549163E-006   1.7907095993874230E-005  0.39094662499993105     
 chl2c          11  0.49702426371062147        2.1820572217820047E-002  0.49737575000000001        1.1348015956267662E-018   3.9906510217826928E-016
 chl          11   8.9002612015507581E-006   1.7907095993874230E-005  0.49702426371062147     
 chl2c          12  0.28770061936988167        4.5290941298723353E-002  0.30768942500000002        4.1224878432561419E-019   9.1284262267944591E-019
 chl          12   5.1518826085535430E-006   1.7907095993874230E-005  0.28770061936988167     
 chl2c          13  0.75605619032100257        3.7935816987997487E-002  0.75666275000000005        1.1348015956267662E-018   5.3514667689970282E-016
 chl          13   1.3673615490290032E-005   1.8085448760739009E-005  0.75605619032100257     
 chl2c          14  0.39554144263510033        4.6856526101924839E-002  0.39804095000000000        4.1224878432561419E-019   1.2983587660502912E-017
 chl          14   7.0829985828222385E-006   1.7907095993874230E-005  0.39554144263510033     
 chl2c          15  0.25607262499999273        2.0954299823745293E-002  0.25607262500000000        1.1348015956267662E-018   5.1126851093605602E-006
 chl          15   4.5855170772782279E-006   1.7907095993874230E-005  0.25607262499999273     
 chl2c          16  0.71384397597745153        3.7823443882273475E-002  0.71433214999999994        1.1348015956267662E-018   5.9267795344265020E-016
 chl          16   1.2910188652260707E-005   1.8085448762921979E-005  0.71384397597745153     
 chl2c          17  0.62543381096257955        3.7542254757581245E-002  0.62580860000000005        1.1348015956267662E-018   5.9255128648911321E-016
 chl          17   1.1311251142762764E-005   1.8085448762921979E-005  0.62543381096257955     
 chl2c          18  0.47831625215705170        2.5694475239060960E-002  0.47925950000000000        3.3296188847380960E-018   4.0459878805872270E-016
 chl          18   8.5652550428064763E-006   1.7907095993874230E-005  0.47831625215705170     
 chl2c          19  0.63367129999997684        3.7570220750293731E-002  0.63367130000000005        1.1348015956267662E-018   9.8406090219200030E-006
 chl          19   1.1460229828683744E-005   1.8085448762921979E-005  0.63367129999997684     
 chl2c          20  0.50652191852865125        3.7020645196759419E-002  0.50678202500000002        1.1348015956267662E-018   5.5996158015992345E-016
 chl          20   9.1606762037411407E-006   1.8085448760739009E-005  0.50652191852865125     
 chl2c          21  0.71973184999997064        3.7838475073783531E-002  0.71973185000000006        1.1348015956267662E-018   9.9950734240041254E-006
 chl          21   1.3016673494646363E-005   1.8085448760739009E-005  0.71973184999997064     
 chl2c          22  0.64616892499997924        3.7613353106285476E-002  0.64616892500000001        1.1348015956267662E-018   1.1375191624615947E-005
 chl          22   1.1686254985279500E-005   1.8085448762921979E-005  0.64616892499997924     
 chl2c          23  0.36219625868160377        3.2286562315070731E-002  0.41564179999999995        9.0062192272651633E-019   1.2684233123264616E-018
 chl          23   6.4858831728335808E-006   1.7907095993874230E-005  0.36219625868160377     
 chl2c          24  0.57560328351666346        3.7348402796863071E-002  0.57597492500000003        1.1348015956267662E-018   5.0616556567386048E-016
 chl          24   1.0410043690553745E-005   1.8085448760739009E-005  0.57560328351666346     
 chl2c          25  0.29435123744670588        4.5426679235459781E-002  0.31406487500000002        4.1224878432561419E-019   9.6660236632355571E-019
 chl          25   5.2709758648738294E-006   1.7907095993874230E-005  0.29435123744670588     
 chl2c          26  0.44285196235888102        4.7955660680174553E-002  0.49427735000000000        4.1224878432561419E-019   8.7736659900258829E-019
 chl          26   7.9301926010360604E-006   1.7907095993874230E-005  0.44285196235888102     
 chl2c          27  0.30811959329449529        4.5333133499525620E-002  0.30964730000000001        4.1224878432561419E-019   1.2872888765476866E-017
 chl          27   5.5175271347180134E-006   1.7907095993874230E-005  0.30811959329449529     
 chl2c          28  0.28487807788187575        3.1209236063453518E-002  0.28776342500000002        9.0062192272651633E-019   1.2794080382916845E-017
 chl          28   5.1013390871811276E-006   1.7907095993874230E-005  0.28487807788187575     
 chl2c          29  0.68676297499996641        3.7743217595736761E-002  0.68676297499999994        1.1348015956267662E-018   7.9946908215137445E-006
 chl          29   1.2420416595134577E-005   1.8085448760739009E-005  0.68676297499996641     
 chl2c          30  0.38869741953790904        2.5380056985171612E-002  0.38930277499999999        3.3296188847380960E-018   4.1615318415383080E-016
 chl          30   6.9604420042365414E-006   1.7907095993874230E-005  0.38869741953790904     
 chl2c          31  0.63559384999991575        3.7576959810037038E-002  0.63559385000000002        1.1348015956267662E-018   2.7194246603109317E-006
 chl          31   1.1495000006814312E-005   1.8085448760739009E-005  0.63559384999991575     
 chl2c          32  0.24722667499999568        2.0893126428578448E-002  0.24722667500000001        1.1348015956267662E-018   8.0224961198236886E-006
 chl          32   4.4271118014712691E-006   1.7907095993874230E-005  0.24722667499999568     
 chl2c          33  0.60343137499997945        3.7458922634011876E-002  0.60343137499999999        1.1348015956267662E-018   1.0078984061394640E-005
 chl          33   1.0913327213184415E-005   1.8085448760739009E-005  0.60343137499997945     
 chl2c          34  0.38174410851622798        2.5350269098008315E-002  0.38241020000000003        3.3296188847380960E-018   3.6486521424269232E-016
 chl          34   6.8359283962960348E-006   1.7907095993874230E-005  0.38174410851622798     
 chl2c          35  0.49465343459722200        2.5740370148566064E-002  0.49574644999999995        3.3296188847380960E-018   3.7350712448468998E-016
 chl          35   8.8578065370320429E-006   1.7907095993874230E-005  0.49465343459722200     
 chl2c          36  0.69534801497663734        3.7770393924465726E-002  0.69587337500000002        1.1348015956267662E-018   5.2259513072852847E-016
 chl          36   1.2575680897259479E-005   1.8085448762921979E-005  0.69534801497663734     
 chl2c          37  0.33176761975047642        2.1353674699533250E-002  0.33194060000000003        1.1348015956267662E-018   3.6123331325587444E-016
 chl          37   5.9409946145309453E-006   1.7907095993874230E-005  0.33176761975047642     
 chl2c          38  0.38435691394831445        2.1543295686358745E-002  0.38455722500000000        1.1348015956267662E-018   4.1867854279062779E-016
 chl          38   6.8827161539817237E-006   1.7907095993874230E-005  0.38435691394831445     
 chl2c          39  0.46996880988167022        2.5670077108751441E-002  0.47091117500000002        3.3296188847380960E-018   3.9097893660885045E-016
 chl          39   8.4157765926778972E-006   1.7907095993874230E-005  0.46996880988167022     
 chl2c          40  0.66832794123958528        3.7687445774703773E-002  0.66875547499999999        1.1348015956267662E-018   5.9316633708477281E-016
 chl          40   1.2087010738117650E-005   1.8085448762921979E-005  0.66832794123958528     
 chl2c          41  0.44210829810508701        2.5582381488167241E-002  0.44304987499999998        3.3296188847380960E-018   3.4632992773413822E-016
 chl          41   7.9168757338561575E-006   1.7907095993874230E-005  0.44210829810508701     
 chl2c          42  0.76174430226952361        3.7949995630725070E-002  0.76234377499999995        1.1348015956267662E-018   5.4964284988223980E-016
 chl          42   1.3776487547480356E-005   1.8085448760739009E-005  0.76174430226952361     
 chl2c          43  0.29539924999999179        2.1185090152268007E-002  0.29539925000000000        1.1348015956267662E-018   6.0154781995936029E-006
 chl          43   5.2897427262683050E-006   1.7907095993874230E-005  0.29539924999999179     
 chl2c          44  0.62373858907881197        3.7536352708156646E-002  0.62417262500000004        1.1348015956267662E-018   5.0894587587544576E-016
 chl          44   1.1280592292880498E-005   1.8085448760739009E-005  0.62373858907881197     
 chl2c          45  0.35315162973237119        4.6544927192009838E-002  0.37662252499999999        4.1224878432561419E-019   1.1680656106179413E-018
 chl          45   6.3239201340106990E-006   1.7907095993874230E-005  0.35315162973237119     
 chl2c          46  0.51876034999997223        3.7083195475449568E-002  0.51876034999999998        1.1348015956267662E-018   5.5017403467526369E-006
 chl          46   9.3820137290275322E-006   1.8085448760739009E-005  0.51876034999997223     
 chl2c          47  0.61924222261728179        3.7519784612651236E-002  0.61962282499999999        1.1348015956267662E-018   5.7201366976708895E-016
 chl          47   1.1199273487630988E-005   1.8085448760739009E-005  0.61924222261728179     
 chl2c          48  0.71373482335045912        3.7823212136301673E-002  0.71424949999999998        1.1348015956267662E-018   5.6200775545248790E-016
 chl          48   1.2908214576459835E-005   1.8085448760739009E-005  0.71373482335045912     
 chl2c          49  0.53246504549533646        3.7152990741888416E-002  0.53276120000000005        1.1348015956267662E-018   5.4349467181201540E-016
 chl          49   9.6298692971904721E-006   1.8085448760739009E-005  0.53246504549533646     
 chl2c          50  0.38132569999998889        2.1533072915600981E-002  0.38132569999999999        1.1348015956267662E-018   7.4589238178291556E-006
 chl          50   6.8284359148310877E-006   1.7907095993874230E-005  0.38132569999998889     
 chl2c          51  0.22269313418055514        2.0700971146093840E-002  0.22275920000000002        1.1348015956267662E-018   4.2604511795928969E-016
 chl          51   3.9877873309479152E-006   1.7907095993874230E-005  0.22269313418055514     
 chl2c          52  0.63659732619178389        3.7581825176985564E-002  0.63698869999999996        1.1348015956267662E-018   5.8788817172390139E-016
 chl          52   1.1513148325454637E-005   1.8085448762921979E-005  0.63659732619178389     
 chl2c          53  0.75212402385060495        3.7925801262726190E-002  0.75269794999999995        1.1348015956267662E-018   5.5968558753088226E-016
 chl          53   1.3602500496712825E-005   1.8085448762921979E-005  0.75212402385060495     
 chl2c          54  0.51831132962531323        3.7082433371327092E-002  0.51861124999999997        1.1348015956267662E-018   5.0853003407818280E-016
 chl          54   9.3738929940491084E-006   1.8085448760739009E-005  0.51831132962531323     
 chl2c          55  0.57808279999998324        3.7357235588660491E-002  0.57808280000000001        1.1348015956267662E-018   1.1309608443050185E-005
 chl          55   1.0454886858864233E-005   1.8085448760739009E-005  0.57808279999998324     
 chl2c          56  0.61589489224878813        3.7507394187257688E-002  0.61626080000000005        1.1348015956267662E-018   5.8855828620818323E-016
 chl          56   1.1138735517110810E-005   1.8085448762921979E-005  0.61589489224878813     
 chl2c          57  0.68163462499955285        3.7727617852646313E-002  0.68163462500000005        1.1348015956267662E-018   5.8948563091134487E-007
 chl          57   1.2327668083974961E-005   1.8085448760739009E-005  0.68163462499955285     
 chl2c          58  0.69416802499997510        3.7765358178394853E-002  0.69416802499999997        1.1348015956267662E-018   1.1047101782387841E-005
 chl          58   1.2554340248995793E-005   1.8085448762921979E-005  0.69416802499997510     
 chl2c          59  0.53705127499997363        3.7173699120809672E-002  0.53705127500000005        1.1348015956267662E-018   6.1923180532992586E-006
 chl          59   9.7128133159015782E-006   1.8085448760739009E-005  0.53705127499997363     
 chl2c          60  0.64452154999997480        3.7607757740906807E-002  0.64452155000000000        1.1348015956267662E-018   9.3699832165565737E-006
 chl          60   1.1656461467716629E-005   1.8085448760739009E-005  0.64452154999997480     
 chl2c          61  0.70742860333931745        3.7805373434125003E-002  0.70794139999999994        1.1348015956267662E-018   5.5414660857059633E-016
 chl          61   1.2794163757574387E-005   1.8085448760739009E-005  0.70742860333931745     
 chl2c          62  0.76415487880261157        3.7956103087269030E-002  0.76481592499999995        1.1348015956267662E-018   5.0164494844654296E-016
 chl          62   1.3820083905853358E-005   1.8085448760739009E-005  0.76415487880261157     
 chl2c          63  0.72597904999996954        3.7855601011927406E-002  0.72597904999999996        1.1348015956267662E-018   9.8392949617841185E-006
 chl          63   1.3129656911729222E-005   1.8085448762921979E-005  0.72597904999996954     
 chl2c          64  0.48321935102512836        2.5708982294816416E-002  0.48435739999999999        3.3296188847380960E-018   3.4238429493290301E-016
 chl          64   8.6530553049045819E-006   1.7907095993874230E-005  0.48321935102512836     
 chl2c          65  0.76379974999993860        3.7953597170552002E-002  0.76379975000000000        1.1348015956267662E-018   5.3895250615324237E-006
 chl          65   1.3813661243756507E-005   1.8085448762921979E-005  0.76379974999993860     
 chl2c          66  0.30225265032732324        3.1840477731474713E-002  0.35213202499999996        9.0062192272651633E-019   9.6087558904820099E-019
 chl          66   5.4124672238142787E-006   1.7907095993874230E-005  0.30225265032732324     
 chl2c          67  0.75676761319342756        3.7937587124568600E-002  0.75736760000000003        1.1348015956267662E-018   5.4202273258204477E-016
 chl          67   1.3686481892196491E-005   1.8085448760739009E-005  0.75676761319342756     
 chl2c          68  0.72590779999997312        3.7855407263856986E-002  0.72590779999999999        1.1348015956267662E-018   1.1077591536513888E-005
 chl          68   1.3128368323504929E-005   1.8085448762921979E-005  0.72590779999997312     
 chl2c          69  0.45524217499997111        2.1732330561541505E-002  0.45524217500000003        1.1348015956267662E-018   4.0614364653520974E-006
 chl          69   8.1520653281845743E-006   1.7907095993874230E-005  0.45524217499997111     
 chl2c          70  0.48025973944976807        3.2658010878182209E-002  0.48694062500000002        9.0062192272651633E-019   1.5762702408874181E-017
 chl          70   8.6000572563200234E-006   1.7907095993874230E-005  0.48025973944976807     
 chl2c          71  0.23986107499718357        4.3481058864416305E-002  0.23986107500000001        4.1224878432561419E-019   4.2106623771462102E-009
 chl          71   4.2952152951684317E-006   1.7907095993874230E-005  0.23986107499718357     
 chl2c          72  0.62752587799989612        3.7549776402781669E-002  0.62790522500000001        1.1348015956267662E-018   5.8935778566737147E-016
 chl          72   1.1349087113974750E-005   1.8085448762921979E-005  0.62752587799989612     
 chl2c          73  0.31238487560644351        3.1852614277819484E-002  0.35362212500000001        9.0062192272651633E-019   1.2062914729087487E-018
 chl          73   5.5939059545190441E-006   1.7907095993874230E-005  0.31238487560644351     
 chl2c          74  0.64719589999997695        3.7616827685877569E-002  0.64719590000000005        1.1348015956267662E-018   1.0277378416219047E-005
 chl          74   1.1704828287609951E-005   1.8085448760739009E-005  0.64719589999997695     
 chl2c          75  0.71499268174378272        3.7826830779512356E-002  0.71554212500000003        1.1348015956267662E-018   5.2832832856541390E-016
 chl          75   1.2930963511541363E-005   1.8085448762921979E-005  0.71499268174378272     
 chl2c          76  0.55513977499998313        3.7257729557919804E-002  0.55513977500000000        1.1348015956267662E-018   1.0330375080180229E-005
 chl          76   1.0039951957022230E-005   1.8085448762921979E-005  0.55513977499998313     
 chl2c          77  0.52973029999998089        3.7138172437479272E-002  0.52973029999999999        1.1348015956267662E-018   8.3487161952935026E-006
 chl          77   9.5804101976605572E-006   1.8085448760739009E-005  0.52973029999998089     
 chl2c          78  0.44860935295533289        4.7515248899399322E-002  0.45117492500000000        4.1224878432561419E-019   1.6261419437786670E-017
 chl          78   8.0332907471209515E-006   1.7907095993874230E-005  0.44860935295533289     
 prod   4.3675788296894374E-009   3.8832959407379802E-012   10.000000000000000     
 dcdom   1.2340638046220105E-012  -9.6320789384610725E-011
 chl2c           1  0.60826437499999630        3.7477407714772232E-002  0.60826437499999997        1.8466925236658982E-019   9.2113778335173152E-006
 chl           1   8.2722759556377181E-006   1.3599803466441330E-005  0.60826437499999630     
 chl2c           2  0.46114602655345832        3.2640259920490348E-002  0.48302390000000001        1.4359134231370853E-019   7.3097116417237106E-019
 chl           2   6.2658856297352922E-006   1.3587638771531126E-005  0.46114602655345832     
 chl2c           3  0.75120266954391024        3.7922212503796585E-002  0.75128689999999998        1.8466925236658982E-019   6.1866903801650020E-016
 chl           3   1.0216208669263252E-005   1.3599803466441330E-005  0.75120266954391024     
 chl2c           4  0.77318742499999515        3.7976509103863923E-002  0.77318742499999993        1.8466925236658982E-019   1.1464670140471714E-005
 chl           4   1.0515197022723780E-005   1.3599803466441330E-005  0.77318742499999515     
 chl2c           5  0.48474526352856306        2.5710500362372445E-002  0.48489679999999996        5.6147427742604130E-019   4.3545731577894386E-016
 chl           5   6.5865435370367767E-006   1.3587638771531126E-005  0.48474526352856306     
 chl2c           6  0.29179355646014560        3.1261039902252048E-002  0.29222855000000003        1.4359134231370853E-019   1.4073878355326733E-017
 chl           6   3.9647854410408310E-006   1.3587638771531126E-005  0.29179355646014560     
 chl2c           7  0.22770739999986425        4.3064391842467263E-002  0.22770740000000000        6.4662285055206983E-020   1.2348902555461956E-008
 chl           7   3.0940058968027024E-006   1.3587638771531126E-005  0.22770739999986425     
 chl2c           8  0.49578364999941937        4.7969800906495587E-002  0.49578364999999996        6.4662285055206983E-020   1.3688316523787421E-008
 chl           8   6.7365291450233289E-006   1.3587638771531126E-005  0.49578364999941937     
 chl2c           9  0.28700202499999727        2.4803669054600401E-002  0.28700202499999999        5.6147427742604130E-019   8.4240302553226199E-006
 chl           9   3.8996798423979086E-006   1.3587638771531126E-005  0.28700202499999727     
 chl2c          10  0.39094662499996130        2.5387016219684602E-002  0.39094662499999999        5.6147427742604130E-019   1.1072630015233617E-006
 chl          10   5.3120415194487145E-006   1.3587638771531126E-005  0.39094662499996130     
 chl2c          11  0.49732586568506665        2.1820572217820047E-002  0.49737575000000001        1.8466925236658982E-019   4.5785318242774424E-016
 chl          11   6.7574842146676930E-006   1.3587638771531126E-005  0.49732586568506665     
 chl2c          12  0.30366403528481573        4.5290941298723353E-002  0.30768942500000002        6.4662285055206983E-020   7.5044531141567525E-019
 chl          12   4.1260772193555580E-006   1.3587638771531126E-005  0.30366403528481573     
 chl2c          13  0.75658442644460777        3.7935816987997487E-002  0.75666275000000005        1.8466925236658982E-019   6.7488838489122634E-016
 chl          13   1.0289399504468280E-005   1.3599803465187509E-005  0.75658442644460777     
 chl2c          14  0.39756612710278777        4.6856526101924839E-002  0.39804095000000000        6.4662285055206983E-020   1.0775229470538191E-017
 chl          14   5.4019849228693110E-006   1.3587638771531126E-005  0.39756612710278777     
 chl2c          15  0.25607262499999756        2.0954299823745293E-002  0.25607262500000000        1.8466925236658982E-019   2.4731930276120818E-006
 chl          15   3.4794223277777176E-006   1.3587638771531126E-005  0.25607262499999756     
 chl2c          16  0.71425600168308589        3.7823443882273475E-002  0.71433214999999994        1.8466925236658982E-019   6.1866903801650020E-016
 chl          16   9.7137412476161556E-006   1.3599803466441330E-005  0.71425600168308589     
 chl2c          17  0.62575015481923124        3.7542254757581245E-002  0.62580860000000005        1.8466925236658982E-019   6.1866903801650020E-016
 chl          17   8.5100791246367792E-006   1.3599803466441330E-005  0.62575015481923124     
 chl2c          18  0.47911988769057579        2.5694475239060960E-002  0.47925950000000000        5.6147427742604130E-019   4.6173318297041386E-016
 chl          18   6.5101079621961064E-006   1.3587638771531126E-005  0.47911988769057579     
 chl2c          19  0.63367129999999683        3.7570220750293731E-002  0.63367130000000005        1.8466925236658982E-019   1.1461982409111061E-005
 chl          19   8.6178051423243400E-006   1.3599803466441330E-005  0.63367129999999683     
 chl2c          20  0.50674793977419108        3.7020645196759419E-002  0.50678202500000002        1.8466925236658982E-019   6.9568335749805110E-016
 chl          20   6.8916723873176750E-006   1.3599803465187509E-005  0.50674793977419108     
 chl2c          21  0.71973184999999618        3.7838475073783531E-002  0.71973185000000006        1.8466925236658982E-019   1.2471971436247229E-005
 chl          21   9.7882117076357651E-006   1.3599803465187509E-005  0.71973184999999618     
 chl2c          22  0.64616892499999656        3.7613353106285476E-002  0.64616892500000001        1.8466925236658982E-019   1.1288334376743068E-005
 chl          22   8.7877703861216211E-006   1.3599803466441330E-005  0.64616892499999656     
 chl2c          23  0.40407942817917691        3.2286562315070731E-002  0.41564179999999995        1.4359134231370853E-019   1.0428870780371784E-018
 chl          23   5.4904853051055112E-006   1.3587638771531126E-005  0.40407942817917691     
 chl2c          24  0.57592778823652291        3.7348402796863071E-002  0.57597492500000003        1.8466925236658982E-019   6.4979512110582090E-016
 chl          24   7.8325047301568417E-006   1.3599803465187509E-005  0.57592778823652291     
 chl2c          25  0.31010239576030535        4.5426679235459781E-002  0.31406487500000002        6.4662285055206983E-020   7.9465485551064425E-019
 chl          25   4.2135593357774146E-006   1.3587638771531126E-005  0.31010239576030535     
 chl2c          26  0.48356348894028106        4.7955660680174553E-002  0.49427735000000000        6.4662285055206983E-020   7.2127230059914453E-019
 chl          26   6.5704860108218260E-006   1.3587638771531126E-005  0.48356348894028106     
 chl2c          27  0.30935739610872159        4.5333133499525620E-002  0.30964730000000001        6.4662285055206983E-020   1.0683038865992476E-017
 chl          27   4.2034365496267779E-006   1.3587638771531126E-005  0.30935739610872159     
 chl2c          28  0.28720456041609160        3.1209236063453518E-002  0.28776342500000002        1.4359134231370853E-019   1.0617410202977262E-017
 chl          28   3.9024318204702404E-006   1.3587638771531126E-005  0.28720456041609160     
 chl2c          29  0.68676297499999328        3.7743217595736761E-002  0.68676297499999994        1.8466925236658982E-019   6.5527522006486176E-006
 chl          29   9.3398414871673917E-006   1.3599803465187509E-005  0.68676297499999328     
 chl2c          30  0.38921221251517907        2.5380056985171612E-002  0.38930277499999999        5.6147427742604130E-019   4.6970533991729666E-016
 chl          30   5.2884749491246595E-006   1.3587638771531126E-005  0.38921221251517907     
 chl2c          31  0.63559384999986746        3.7576959810037038E-002  0.63559385000000002        1.8466925236658982E-019   2.8162086880156716E-007
 chl          31   8.6439514436800674E-006   1.3599803465187509E-005  0.63559384999986746     
 chl2c          32  0.24722667499999929        2.0893126428578448E-002  0.24722667500000001        1.8466925236658982E-019   7.8304116424616077E-006
 chl          32   3.3592267545867154E-006   1.3587638771531126E-005  0.24722667499999929     
 chl2c          33  0.60343137499999722        3.7458922634011876E-002  0.60343137499999999        1.8466925236658982E-019   1.2227608218016736E-005
 chl          33   8.2065481047278259E-006   1.3599803465187509E-005  0.60343137499999722     
 chl2c          34  0.38231539506550566        2.5350269098008315E-002  0.38241020000000003        5.6147427742604130E-019   4.3293249170192146E-016
 chl          34   5.1947634849453048E-006   1.3587638771531126E-005  0.38231539506550566     
 chl2c          35  0.49558947386841445        2.5740370148566064E-002  0.49574644999999995        5.6147427742604130E-019   4.3938773843759776E-016
 chl          35   6.7338907498971801E-006   1.3587638771531126E-005  0.49558947386841445     
 chl2c          36  0.69580111107415998        3.7770393924465726E-002  0.69587337500000002        1.8466925236658982E-019   6.1866903801650020E-016
 chl          36   9.4627583623400903E-006   1.3599803466441330E-005  0.69580111107415998     
 chl2c          37  0.33191695181844638        2.1353674699533250E-002  0.33194060000000003        1.8466925236658982E-019   4.3018637632561844E-016
 chl          37   4.5099676434567511E-006   1.3587638771531126E-005  0.33191695181844638     
 chl2c          38  0.38452826215272840        2.1543295686358745E-002  0.38455722500000000        1.8466925236658982E-019   4.7142496942763681E-016
 chl          38   5.2248311235758976E-006   1.3587638771531126E-005  0.38452826215272840     
 chl2c          39  0.47077351511204019        2.5670077108751441E-002  0.47091117500000002        5.6147427742604130E-019   4.5210933713608908E-016
 chl          39   6.3967004665463522E-006   1.3587638771531126E-005  0.47077351511204019     
 chl2c          40  0.66868873325307709        3.7687445774703773E-002  0.66875547499999999        1.8466925236658982E-019   6.1866903801650020E-016
 chl          40   9.0940353524654599E-006   1.3599803466441330E-005  0.66868873325307709     
 chl2c          41  0.44291830199012627        2.5582381488167241E-002  0.44304987499999998        5.6147427742604130E-019   4.1870611553393386E-016
 chl          41   6.0182138927417716E-006   1.3587638771531126E-005  0.44291830199012627     
 chl2c          42  0.76226568515746695        3.7949995630725070E-002  0.76234377499999995        1.8466925236658982E-019   6.8711159322035607E-016
 chl          42   1.0366663506398050E-005   1.3599803465187509E-005  0.76226568515746695     
 chl2c          43  0.29539924999999900        2.1185090152268007E-002  0.29539925000000000        1.8466925236658982E-019   8.0658367921480668E-006
 chl          43   4.0137783023812028E-006   1.3587638771531126E-005  0.29539924999999900     
 chl2c          44  0.62411747731050382        3.7536352708156646E-002  0.62417262500000004        1.8466925236658982E-019   6.5224136087230728E-016
 chl          44   8.4878750306114764E-006   1.3599803465187509E-005  0.62411747731050382     
 chl2c          45  0.37190694179851042        4.6544927192009838E-002  0.37662252499999999        6.4662285055206983E-020   9.6034264725708181E-019
 chl          45   5.0533371817830104E-006   1.3587638771531126E-005  0.37190694179851042     
 chl2c          46  0.51876034999999165        3.7083195475449568E-002  0.51876034999999998        1.8466925236658982E-019   2.9993055973156190E-006
 chl          46   7.0550388055317718E-006   1.3599803465187509E-005  0.51876034999999165     
 chl2c          47  0.61957258508632129        3.7519784612651236E-002  0.61962282499999999        1.8466925236658982E-019   7.0556220859230155E-016
 chl          47   8.4260653895921347E-006   1.3599803465187509E-005  0.61957258508632129     
 chl2c          48  0.71418196019575031        3.7823212136301673E-002  0.71424949999999998        1.8466925236658982E-019   6.9737057499766154E-016
 chl          48   9.7127342970445721E-006   1.3599803465187509E-005  0.71418196019575031     
 chl2c          49  0.53272277236585930        3.7152990741888416E-002  0.53276120000000005        1.8466925236658982E-019   6.8195355631276633E-016
 chl          49   7.2449250056055098E-006   1.3599803465187509E-005  0.53272277236585930     
 chl2c          50  0.38132569999999838        2.1533072915600981E-002  0.38132569999999999        1.8466925236658982E-019   8.1913648966034167E-006
 chl          50   5.1813158659012245E-006   1.3587638771531126E-005  0.38132569999999838     
 chl2c          51  0.22274958278400442        2.0700971146093840E-002  0.22275920000000002        1.8466925236658982E-019   4.7639563544738955E-016
 chl          51   3.0266408673783206E-006   1.3587638771531126E-005  0.22274958278400442     
 chl2c          52  0.63692814801510744        3.7581825176985564E-002  0.63698869999999996        1.8466925236658982E-019   6.1866903801650020E-016
 chl          52   8.6620976352499141E-006   1.3599803466441330E-005  0.63692814801510744     
 chl2c          53  0.75269794999473227        3.7925801262726190E-002  0.75269794999999995        1.8466925236658982E-019   9.9307140999398172E-009
 chl          53   1.0236544189521643E-005   1.3599803466441330E-005  0.75269794999473227     
 chl2c          54  0.51857315644042523        3.7082433371327092E-002  0.51861124999999997        1.8466925236658982E-019   6.5187601883277062E-016
 chl          54   7.0524930099117193E-006   1.3599803465187509E-005  0.51857315644042523     
 chl2c          55  0.57808279999999757        3.7357235588660491E-002  0.57808280000000001        1.8466925236658982E-019   1.2877954609829710E-005
 chl          55   7.8618124666052643E-006   1.3599803465187509E-005  0.57808279999999757     
 chl2c          56  0.61620412450032258        3.7507394187257688E-002  0.61626080000000005        1.8466925236658982E-019   6.1866903801650020E-016
 chl          56   8.3802549884149325E-006   1.3599803466441330E-005  0.61620412450032258     
 chl2c          57  0.68157477287382962        3.7727617852646313E-002  0.68163462500000005        1.8466925236658982E-019   7.1672105557891706E-016
 chl          57   9.2692829579138971E-006   1.3599803465187509E-005  0.68157477287382962     
 chl2c          58  0.69416802499999608        3.7765358178394853E-002  0.69416802499999997        1.8466925236658982E-019   1.1437641138134044E-005
 chl          58   9.4405487126876791E-006   1.3599803466441330E-005  0.69416802499999608     
 chl2c          59  0.53705127499999739        3.7173699120809672E-002  0.53705127500000005        1.8466925236658982E-019   1.0114247470269937E-005
 chl          59   7.3037917907283343E-006   1.3599803465187509E-005  0.53705127499999739     
 chl2c          60  0.64452154999999667        3.7607757740906807E-002  0.64452155000000000        1.8466925236658982E-019   1.1862444027288402E-005
 chl          60   8.7653664090779800E-006   1.3599803465187509E-005  0.64452154999999667     
 chl2c          61  0.70787442320436500        3.7805373434125003E-002  0.70794139999999994        1.8466925236658982E-019   6.9086590551028618E-016
 chl          61   9.6269530336123333E-006   1.3599803465187509E-005  0.70787442320436500     
 chl2c          62  0.76473230057876018        3.7956103087269030E-002  0.76481592499999995        1.8466925236658982E-019   6.4579968177259966E-016
 chl          62   1.0400208991351838E-005   1.3599803465187509E-005  0.76473230057876018     
 chl2c          63  0.72597904999999574        3.7855601011927406E-002  0.72597904999999996        1.8466925236658982E-019   1.1464670418596195E-005
 chl          63   9.8731724007537259E-006   1.3599803466441330E-005  0.72597904999999574     
 chl2c          64  0.48419898169331399        2.5708982294816416E-002  0.48435739999999999        5.6147427742604130E-019   4.1560839690078841E-016
 chl          64   6.5791208567919636E-006   1.3587638771531126E-005  0.48419898169331399     
 chl2c          65  0.76379974999999367        3.7953597170552002E-002  0.76379975000000000        1.8466925236658982E-019   8.5634270471177312E-006
 chl          65   1.0387526487716936E-005   1.3599803466441330E-005  0.76379974999999367     
 chl2c          66  0.34121181960078162        3.1840477731474713E-002  0.35213202499999996        1.4359134231370853E-019   7.8994534375950600E-019
 chl          66   4.6362629493122648E-006   1.3587638771531126E-005  0.34121181960078162     
 chl2c          67  0.75728980182811323        3.7937587124568600E-002  0.75736760000000003        1.8466925236658982E-019   6.8071298299860666E-016
 chl          67   1.0298992471053137E-005   1.3599803465187509E-005  0.75728980182811323     
 chl2c          68  0.72590779999999566        3.7855407263856986E-002  0.72590779999999999        1.8466925236658982E-019   1.1390164794789020E-005
 chl          68   9.8722034147567401E-006   1.3599803466441330E-005  0.72590779999999566     
 chl2c          69  0.45524217499998870        2.1732330561541505E-002  0.45524217500000003        1.8466925236658982E-019   1.6957739109435072E-006
 chl          69   6.1856662274660048E-006   1.3587638771531126E-005  0.45524217499998870     
 chl2c          70  0.48564373623196072        3.2658010878182209E-002  0.48694062500000002        1.4359134231370853E-019   1.3091497622937691E-017
 chl          70   6.5987516595766248E-006   1.3587638771531126E-005  0.48564373623196072     
 chl2c          71  0.23986107499979176        4.3481058864416305E-002  0.23986107500000001        6.4662285055206983E-020   8.9333966712382075E-009
 chl          71   3.2591456424483058E-006   1.3587638771531126E-005  0.23986107499979176     
 chl2c          72  0.62784638756788291        3.7549776402781669E-002  0.62790522500000001        1.8466925236658982E-019   6.1866903801650020E-016
 chl          72   8.5385874780383608E-006   1.3599803466441330E-005  0.62784638756788291     
 chl2c          73  0.34479573781980616        3.1852614277819484E-002  0.35362212500000001        1.4359134231370853E-019   9.9178287155357405E-019
 chl          73   4.6849599354590792E-006   1.3587638771531126E-005  0.34479573781980616     
 chl2c          74  0.64719589999999705        3.7616827685877569E-002  0.64719590000000005        1.8466925236658982E-019   1.2648372818252458E-005
 chl          74   8.8017370434751081E-006   1.3599803465187509E-005  0.64719589999999705     
 chl2c          75  0.71546571851000507        3.7826830779512356E-002  0.71554212500000003        1.8466925236658982E-019   6.1866903801650020E-016
 chl          75   9.7301931587123034E-006   1.3599803466441330E-005  0.71546571851000507     
 chl2c          76  0.55513977499999712        3.7257729557919804E-002  0.55513977500000000        1.8466925236658982E-019   9.9589660363159237E-006
 chl          76   7.5497918364044207E-006   1.3599803466441330E-005  0.55513977499999712     
 chl2c          77  0.52973029999999777        3.7138172437479272E-002  0.52973029999999999        1.8466925236658982E-019   1.1329213436417321E-005
 chl          77   7.2042279695547885E-006   1.3599803465187509E-005  0.52973029999999777     
 chl2c          78  0.45068821926165659        4.7515248899399322E-002  0.45117492500000000        6.4662285055206983E-020   1.3507523949841842E-017
 chl          78   6.1237887219120061E-006   1.3587638771531126E-005  0.45068821926165659     
 prod   3.5895146559942104E-009   6.1111875233678726E-013   10.000000000000000     
 dcdom   1.2353843448973442E-012  -7.5285454735296271E-011
 chl2c           1  0.60826437499999930        3.7477407714772232E-002  0.60826437499999997        3.5821671523775027E-020   1.0415574080753864E-005
 chl           1   5.6621920089454882E-006   9.3087680976639395E-006  0.60826437499999930     
 chl2c           2  0.47754034798705580        3.2640259920490348E-002  0.48302390000000001        2.7251673029101462E-020   5.7316531118456033E-019
 chl           2   4.4395967118945331E-006   9.2967991722761671E-006  0.47754034798705580     
 chl2c           3  0.75127109512677215        3.7922212503796585E-002  0.75128689999999998        3.5821671523775027E-020   6.3962779968493990E-016
 chl           3   6.9934084030131476E-006   9.3087680976639395E-006  0.75127109512677215     
 chl2c           4  0.77318742499999893        3.7976509103863923E-002  0.77318742499999993        3.5821671523775027E-020   1.1230029679218578E-005
 chl           4   7.1974224353549196E-006   9.3087680976639395E-006  0.77318742499999893     
 chl2c           5  0.48486836632561142        2.5710500362372445E-002  0.48489679999999996        1.1284653487108812E-019   4.6655023819220081E-016
 chl           5   4.5077238267188420E-006   9.2967991722761671E-006  0.48486836632561142     
 chl2c           6  0.29212457721243906        3.1261039902252048E-002  0.29222855000000003        2.7251673029101462E-020   1.1187530340294787E-017
 chl           6   2.7158235276301288E-006   9.2967991722761671E-006  0.29212457721243906     
 chl2c           7  0.22770739999995804        4.3064391842467263E-002  0.22770740000000000        1.2053674439639211E-020   7.4473971239462514E-009
 chl           7   2.1169499678407680E-006   9.2967991722761671E-006  0.22770739999995804     
 chl2c           8  0.49578364999985808        4.7969800906495587E-002  0.49578364999999996        1.2053674439639211E-020   1.0438279018324613E-008
 chl           8   4.6092010269467372E-006   9.2967991722761671E-006  0.49578364999985808     
 chl2c           9  0.28700202499999944        2.4803669054600401E-002  0.28700202499999999        1.1284653487108812E-019   8.4595297726039371E-006
 chl           9   2.6682001884615787E-006   9.2967991722761671E-006  0.28700202499999944     
 chl2c          10  0.39092871268442414        2.5387016219684602E-002  0.39094662499999999        1.1284653487108812E-019   4.8141712832261090E-016
 chl          10   3.6343857325035418E-006   9.2967991722761671E-006  0.39092871268442414     
 chl2c          11  0.49736659292355906        2.1820572217820047E-002  0.49737575000000001        3.5821671523775027E-020   4.8386056724732670E-016
 chl          11   4.6239173294095612E-006   9.2967991722761671E-006  0.49736659292355906     
 chl2c          12  0.30672282651457200        4.5290941298723353E-002  0.30768942500000002        1.2053674439639211E-020   5.8843977295246177E-019
 chl          12   2.8515405196588792E-006   9.2967991722761671E-006  0.30672282651457200     
 chl2c          13  0.75664900434834359        3.7935816987997487E-002  0.75666275000000005        3.5821671523775027E-020   7.4601461745772990E-016
 chl          13   7.0434701123627202E-006   9.3087680970767136E-006  0.75664900434834359     
 chl2c          14  0.39792938069376843        4.6856526101924839E-002  0.39804095000000000        1.2053674439639211E-020   8.5561519612834505E-018
 chl          14   3.6994695370581940E-006   9.2967991722761671E-006  0.39792938069376843     
 chl2c          15  0.25607023244950217        2.0954299823745293E-002  0.25607262500000000        3.5821671523775027E-020   4.9088186484514361E-016
 chl          15   2.3806335250810976E-006   9.2967991722761671E-006  0.25607023244950217     
 chl2c          16  0.71433214999997874        3.7823443882273475E-002  0.71433214999999994        3.5821671523775027E-020   4.2974197349272128E-007
 chl          16   6.6495523290554942E-006   9.3087680976639395E-006  0.71433214999997874     
 chl2c          17  0.62579763360299345        3.7542254757581245E-002  0.62580860000000005        3.5821671523775027E-020   6.3962779968493990E-016
 chl          17   5.8254050472771326E-006   9.3087680976639395E-006  0.62579763360299345     
 chl2c          18  0.47923287963028305        2.5694475239060960E-002  0.47925950000000000        1.1284653487108812E-019   4.8681223702040660E-016
 chl          18   4.4553318386743390E-006   9.2967991722761671E-006  0.47923287963028305     
 chl2c          19  0.63367129999999938        3.7570220750293731E-002  0.63367130000000005        3.5821671523775027E-020   1.1249697432865251E-005
 chl          19   5.8986991818452299E-006   9.3087680976639395E-006  0.63367129999999938     
 chl2c          20  0.50677599799898998        3.7020645196759419E-002  0.50678202500000002        3.5821671523775027E-020   7.6322366407314843E-016
 chl          20   4.7174602425372100E-006   9.3087680970767136E-006  0.50677599799898998     
 chl2c          21  0.71973184999999940        3.7838475073783531E-002  0.71973185000000006        3.5821671523775027E-020   1.3208000409821446E-005
 chl          21   6.6998168837299969E-006   9.3087680970767136E-006  0.71973184999999940     
 chl2c          22  0.64616892499999934        3.7613353106285476E-002  0.64616892500000001        3.5821671523775027E-020   1.0511253965437650E-005
 chl          22   6.0150366747417966E-006   9.3087680976639395E-006  0.64616892499999934     
 chl2c          23  0.41564179999633316        3.2286562315070731E-002  0.41564179999999995        2.7251673029101462E-020   6.4197386183799919E-010
 chl          23   3.8641383421692867E-006   9.2967991722761671E-006  0.41564179999633316     
 chl2c          24  0.57596672829565498        3.7348402796863071E-002  0.57597492500000003        3.5821671523775027E-020   7.2489908974796789E-016
 chl          24   5.3615407053362450E-006   9.3087680970767136E-006  0.57596672829565498     
 chl2c          25  0.31406487499653740        4.5426679235459781E-002  0.31406487500000002        1.2053674439639211E-020   1.7168065580840120E-010
 chl          25   2.9197980699088266E-006   9.2967991722761671E-006  0.31406487499653740     
 chl2c          26  0.49168751499488200        4.7955660680174553E-002  0.49427735000000000        1.2053674439639211E-020   5.6555813722836451E-019
 chl          26   4.5711200824229447E-006   9.2967991722761671E-006  0.49168751499488200     
 chl2c          27  0.30957919251450400        4.5333133499525620E-002  0.30964730000000001        1.2053674439639211E-020   8.4826915568132176E-018
 chl          27   2.8780955807227648E-006   9.2967991722761671E-006  0.30957919251450400     
 chl2c          28  0.28762964713091987        3.1209236063453518E-002  0.28776342500000002        2.7251673029101462E-020   8.4303992452954787E-018
 chl          28   2.6740350653688220E-006   9.2967991722761671E-006  0.28762964713091987     
 chl2c          29  0.68676297499999739        3.7743217595736761E-002  0.68676297499999994        3.5821671523775027E-020   3.2744377509921313E-006
 chl          29   6.3929172719334683E-006   9.3087680970767136E-006  0.68676297499999739     
 chl2c          30  0.38928542446185138        2.5380056985171612E-002  0.38930277499999999        1.1284653487108812E-019   4.9283429938489821E-016
 chl          30   3.6191084119161164E-006   9.2967991722761671E-006  0.38928542446185138     
 chl2c          31  0.63558444076054699        3.7576959810037038E-002  0.63559385000000002        3.5821671523775027E-020   7.6897863551215214E-016
 chl          31   5.9165081651501238E-006   9.3087680970767136E-006  0.63558444076054699     
 chl2c          32  0.24722667499999984        2.0893126428578448E-002  0.24722667500000001        3.5821671523775027E-020   5.8644163776976847E-006
 chl          32   2.2984167475045874E-006   9.2967991722761671E-006  0.24722667499999984     
 chl2c          33  0.60343137499999944        3.7458922634011876E-002  0.60343137499999999        3.5821671523775027E-020   1.2898211148522702E-005
 chl          33   5.6172027323751292E-006   9.3087680970767136E-006  0.60343137499999944     
 chl2c          34  0.38239243984205656        2.5350269098008315E-002  0.38241020000000003        1.1284653487108812E-019   4.6456894332458720E-016
 chl          34   3.5550257182082953E-006   9.2967991722761671E-006  0.38239243984205656     
 chl2c          35  0.49571692412248691        2.5740370148566064E-002  0.49574644999999995        1.1284653487108812E-019   4.6962237193633127E-016
 chl          35   4.6085806898652238E-006   9.2967991722761671E-006  0.49571692412248691     
 chl2c          36  0.69585981559919197        3.7770393924465726E-002  0.69587337500000002        3.5821671523775027E-020   6.3962779968493990E-016
 chl          36   6.4775976518960699E-006   9.3087680976639395E-006  0.69585981559919197     
 chl2c          37  0.33193633217493684        2.1353674699533250E-002  0.33194060000000003        3.5821671523775027E-020   4.6240700809488612E-016
 chl          37   3.0859454182123395E-006   9.2967991722761671E-006  0.33193633217493684     
 chl2c          38  0.38455186463726460        2.1543295686358745E-002  0.38455722500000000        3.5821671523775027E-020   4.9412584372708651E-016
 chl          38   3.5751014568569780E-006   9.2967991722761671E-006  0.38455186463726460     
 chl2c          39  0.47088508016027519        2.5670077108751441E-002  0.47091117500000002        1.1284653487108812E-019   4.7946567929887913E-016
 chl          39   4.3777240234712434E-006   9.2967991722761671E-006  0.47088508016027519     
 chl2c          40  0.66875547499998056        3.7687445774703773E-002  0.66875547499999999        3.5821671523775027E-020   4.1024847432510293E-007
 chl          40   6.2252896308179130E-006   9.3087680976639395E-006  0.66875547499998056     
 chl2c          41  0.44304987499999438        2.5582381488167241E-002  0.44304987499999998        1.1284653487108812E-019   1.9875306853730768E-006
 chl          41   4.1189457111770070E-006   9.2967991722761671E-006  0.44304987499999438     
 chl2c          42  0.76234377499999351        3.7949995630725070E-002  0.76234377499999995        3.5821671523775027E-020   1.6280230071686693E-006
 chl          42   7.0964814117249680E-006   9.3087680970767136E-006  0.76234377499999351     
 chl2c          43  0.29539924999999978        2.1185090152268007E-002  0.29539925000000000        3.5821671523775027E-020   8.5961224733044154E-006
 chl          43   2.7462675028909985E-006   9.2967991722761671E-006  0.29539924999999978     
 chl2c          44  0.62416302658890987        3.7536352708156646E-002  0.62417262500000004        3.5821671523775027E-020   7.2697464065763617E-016
 chl          44   5.8101888692856890E-006   9.3087680970767136E-006  0.62416302658890987     
 chl2c          45  0.37549077609359022        4.6544927192009838E-002  0.37662252499999999        1.2053674439639211E-020   7.5308663785058829E-019
 chl          45   3.4908623363842252E-006   9.2967991722761671E-006  0.37549077609359022     
 chl2c          46  0.51876034999995446        3.7083195475449568E-002  0.51876034999999998        3.5821671523775027E-020   1.0585908034261640E-007
 chl          46   4.8290197961079256E-006   9.3087680970767136E-006  0.51876034999995446     
 chl2c          47  0.61961390969811847        3.7519784612651236E-002  0.61962282499999999        3.5821671523775027E-020   7.7130893831849269E-016
 chl          47   5.7678421951028170E-006   9.3087680970767136E-006  0.61961390969811847     
 chl2c          48  0.71423754996214139        3.7823212136301673E-002  0.71424949999999998        3.5821671523775027E-020   7.6460862774609311E-016
 chl          48   6.6486717188218173E-006   9.3087680970767136E-006  0.71423754996214139     
 chl2c          49  0.53275443884492235        3.7152990741888416E-002  0.53276120000000005        3.5821671523775027E-020   7.5189053804376446E-016
 chl          49   4.9592875238956203E-006   9.3087680970767136E-006  0.53275443884492235     
 chl2c          50  0.38132569999999966        2.1533072915600981E-002  0.38132569999999999        3.5821671523775027E-020   7.7783671688031950E-006
 chl          50   3.5451084521276270E-006   9.2967991722761671E-006  0.38132569999999966     
 chl2c          51  0.22275741478719463        2.0700971146093840E-002  0.22275920000000002        3.5821671523775027E-020   4.9784445774106259E-016
 chl          51   2.0709309494119700E-006   9.2967991722761671E-006  0.22275741478719463     
 chl2c          52  0.63697733827612202        3.7581825176985564E-002  0.63698869999999996        3.5821671523775027E-020   6.3962779968493990E-016
 chl          52   5.9294743254796558E-006   9.3087680976639395E-006  0.63697733827612202     
 chl2c          53  0.75269794999999540        3.7925801262726190E-002  0.75269794999999995        3.5821671523775027E-020   2.2849954841891588E-006
 chl          53   7.0066906641370044E-006   9.3087680976639395E-006  0.75269794999999540     
 chl2c          54  0.51860462081733671        3.7082433371327092E-002  0.51861124999999997        3.5821671523775027E-020   7.2666489687672925E-016
 chl          54   4.8275701492609897E-006   9.3087680970767136E-006  0.51860462081733671     
 chl2c          55  0.57808279999999945        3.7357235588660491E-002  0.57808280000000001        3.5821671523775027E-020   1.2397273516314341E-005
 chl          55   5.3812387261087729E-006   9.3087680970767136E-006  0.57808279999999945     
 chl2c          56  0.61625016567048962        3.7507394187257688E-002  0.61626080000000005        3.5821671523775027E-020   6.3962779968493990E-016
 chl          56   5.7365298823735710E-006   9.3087680976639395E-006  0.61625016567048962     
 chl2c          57  0.68162396124811486        3.7727617852646313E-002  0.68163462500000005        3.5821671523775027E-020   7.8037313822406094E-016
 chl          57   6.3450793846695061E-006   9.3087680970767136E-006  0.68162396124811486     
 chl2c          58  0.69416802499999919        3.7765358178394853E-002  0.69416802499999997        3.5821671523775027E-020   1.1249513304728382E-005
 chl          58   6.4618491655383767E-006   9.3087680976639395E-006  0.69416802499999919     
 chl2c          59  0.53705127499999972        3.7173699120809672E-002  0.53705127500000005        3.5821671523775027E-020   1.2423230127908960E-005
 chl          59   4.9992857752143700E-006   9.3087680970767136E-006  0.53705127499999972     
 chl2c          60  0.64452154999999944        3.7607757740906807E-002  0.64452155000000000        3.5821671523775027E-020   1.2676649332016740E-005
 chl          60   5.9997016425184284E-006   9.3087680970767136E-006  0.64452154999999944     
 chl2c          61  0.70792957740718687        3.7805373434125003E-002  0.70794139999999994        3.5821671523775027E-020   7.5925994190186037E-016
 chl          61   6.5899522651450209E-006   9.3087680970767136E-006  0.70792957740718687     
 chl2c          62  0.76480140440309041        3.7956103087269030E-002  0.76481592499999995        3.5821671523775027E-020   7.2150107236684589E-016
 chl          62   7.1193589139069541E-006   9.3087680970767136E-006  0.76480140440309041     
 chl2c          63  0.72597904999999918        3.7855601011927406E-002  0.72597904999999996        3.5821671523775027E-020   1.1230050727148857E-005
 chl          63   6.7579706202123665E-006   9.3087680976639395E-006  0.72597904999999918     
 chl2c          64  0.48432803882131026        2.5708982294816416E-002  0.48435739999999999        1.1284653487108812E-019   4.5080663297441744E-016
 chl          64   4.5027005104240963E-006   9.2967991722761671E-006  0.48432803882131026     
 chl2c          65  0.76379974999999900        3.7953597170552002E-002  0.76379975000000000        3.5821671523775027E-020   1.0068584998461493E-005
 chl          65   7.1100347458036833E-006   9.3087680976639395E-006  0.76379974999999900     
 chl2c          66  0.34942534843787537        3.1840477731474713E-002  0.35213202499999996        2.7251673029101462E-020   6.1942216630410809E-019
 chl          66   3.2485372901295510E-006   9.2967991722761671E-006  0.34942534843787537     
 chl2c          67  0.75735391761131776        3.7937587124568600E-002  0.75736760000000003        3.5821671523775027E-020   7.5086096365925197E-016
 chl          67   7.0500319864563009E-006   9.3087680970767136E-006  0.75735391761131776     
 chl2c          68  0.72590779999999921        3.7855407263856986E-002  0.72590779999999999        3.5821671523775027E-020   1.1246657556698292E-005
 chl          68   6.7573073704854082E-006   9.3087680976639395E-006  0.72590779999999921     
 chl2c          69  0.45523422682045683        2.1732330561541505E-002  0.45524217500000003        3.5821671523775027E-020   4.6700935387880007E-016
 chl          69   4.2322211830962037E-006   9.2967991722761671E-006  0.45523422682045683     
 chl2c          70  0.48663026335930298        3.2658010878182209E-002  0.48694062500000002        2.7251673029101462E-020   1.0403279286486415E-017
 chl          70   4.5241038296033016E-006   9.2967991722761671E-006  0.48663026335930298     
 chl2c          71  0.23986107499996545        4.3481058864416305E-002  0.23986107500000001        1.2053674439639211E-020   1.0029635622673728E-008
 chl          71   2.2299402435209503E-006   9.2967991722761671E-006  0.23986107499996545     
 chl2c          72  0.62789418499986727        3.7549776402781669E-002  0.62790522500000001        3.5821671523775027E-020   6.3962779968493990E-016
 chl          72   5.8449213580354639E-006   9.3087680976639395E-006  0.62789418499986727     
 chl2c          73  0.35144482102533592        3.1852614277819484E-002  0.35362212500000001        2.7251673029101462E-020   7.7775119298527002E-019
 chl          73   3.2673119212090888E-006   9.2967991722761671E-006  0.35144482102533592     
 chl2c          74  0.64719589999999949        3.7616827685877569E-002  0.64719590000000005        3.5821671523775027E-020   1.3316261869202627E-005
 chl          74   6.0245965464788462E-006   9.3087680970767136E-006  0.64719589999999949     
 chl2c          75  0.71552778826586205        3.7826830779512356E-002  0.71554212500000003        3.5821671523775027E-020   6.3962779968493990E-016
 chl          75   6.6606822484012950E-006   9.3087680976639395E-006  0.71552778826586205     
 chl2c          76  0.55513977499999922        3.7257729557919804E-002  0.55513977500000000        3.5821671523775027E-020   7.8561042280379544E-006
 chl          76   5.1676674272643304E-006   9.3087680976639395E-006  0.55513977499999922     
 chl2c          77  0.52973029999999965        3.7138172437479272E-002  0.52973029999999999        3.5821671523775027E-020   1.2489699300119840E-005
 chl          77   4.9311365166948736E-006   9.3087680970767136E-006  0.52973029999999965     
 chl2c          78  0.45106067567854718        4.7515248899399322E-002  0.45117492500000000        1.2053674439639211E-020   1.0735338755344973E-017
 chl          78   4.1934205162946462E-006   9.2967991722761671E-006  0.45106067567854718     
 prod   2.8137848601481252E-009   1.1434363670433457E-013   10.000000000000000     
 dcdom   1.2367597676768143E-012  -5.4259883624496636E-011
 chl2c           1  0.60826437499999986        3.7477407714772232E-002  0.60826437499999997        8.3478730882328700E-021   1.0927017418572973E-005
 chl           1   3.0524112293846518E-006   5.0182311423131635E-006  0.60826437499999986     
 chl2c           2  0.48128373638937566        3.2640259920490348E-002  0.48302390000000001        6.2171484275139793E-021   4.1527995019273604E-019
 chl           2   2.4094331181631367E-006   5.0062633244972560E-006  0.48128373638937566     
 chl2c           3  0.75128336244896998        3.7922212503796585E-002  0.75128689999999998        8.3478730882328700E-021   6.6596701048611098E-016
 chl           3   3.7701135661431689E-006   5.0182311423131635E-006  0.75128336244896998     
 chl2c           4  0.77318742499999971        3.7976509103863923E-002  0.77318742499999993        8.3478730882328700E-021   1.1020083846552063E-005
 chl           4   3.8800332149799219E-006   5.0182311423131635E-006  0.77318742499999971     
 chl2c           5  0.48489028103985926        2.5710500362372445E-002  0.48489679999999996        2.7153648282618873E-020   4.8968033601804308E-016
 chl           5   2.4274884303750147E-006   5.0062633244972560E-006  0.48489028103985926     
 chl2c           6  0.29222854999991638        3.1261039902252048E-002  0.29222855000000003        6.2171484275139793E-021   3.1737725400275385E-009
 chl           6   1.4629730722355939E-006   5.0062633244972560E-006  0.29222854999991638     
 chl2c           7  0.22770739999997841        4.3064391842467263E-002  0.22770740000000000        2.7010858473413666E-021   3.2399614475878021E-009
 chl           7   1.1399632053365183E-006   5.0062633244972560E-006  0.22770739999997841     
 chl2c           8  0.49578364999995406        4.7969800906495587E-002  0.49578364999999996        2.7010858473413666E-021   7.2259309249814980E-009
 chl           8   2.4820235038801540E-006   5.0062633244972560E-006  0.49578364999995406     
 chl2c           9  0.28700202499999988        2.4803669054600401E-002  0.28700202499999999        2.7153648282618873E-020   8.2713308089708953E-006
 chl           9   1.4368077118139439E-006   5.0062633244972560E-006  0.28700202499999988     
 chl2c          10  0.39094248251007269        2.5387016219684602E-002  0.39094662499999999        2.7153648282618873E-020   5.0091849410235048E-016
 chl          10   1.9571610121780867E-006   5.0062633244972560E-006  0.39094248251007269     
 chl2c          11  0.49737369617371208        2.1820572217820047E-002  0.49737575000000001        8.3478730882328700E-021   5.0274707745256902E-016
 chl          11   2.4899836937240958E-006   5.0062633244972560E-006  0.49737369617371208     
 chl2c          12  0.30738982345828814        4.5290941298723353E-002  0.30768942500000002        2.7010858473413666E-021   4.2635013377134608E-019
 chl          12   1.5388743995029142E-006   5.0062633244972560E-006  0.30738982345828814     
 chl2c          13  0.75665977002483520        3.7935816987997487E-002  0.75666275000000005        8.3478730882328700E-021   8.0192951158645577E-016
 chl          13   3.7970936219451190E-006   5.0182311421426439E-006  0.75665977002483520     
 chl2c          14  0.39800710065041411        4.6856526101924839E-002  0.39804095000000000        2.7010858473413666E-021   6.3208667903180303E-018
 chl          14   1.9925283508756560E-006   5.0062633244972560E-006  0.39800710065041411     
 chl2c          15  0.25607208619630101        2.0954299823745293E-002  0.25607262500000000        8.3478730882328700E-021   5.0797304407459683E-016
 chl          15   1.2819642935520418E-006   5.0062633244972560E-006  0.25607208619630101     
 chl2c          16  0.71433214999999917        3.7823443882273475E-002  0.71433214999999994        8.3478730882328700E-021   2.6187337206267488E-006
 chl          16   3.5846838410855138E-006   5.0182311423131635E-006  0.71433214999999917     
 chl2c          17  0.62580614543534341        3.7542254757581245E-002  0.62580860000000005        8.3478730882328700E-021   6.6596701048611098E-016
 chl          17   3.1404398880746010E-006   5.0182311423131635E-006  0.62580614543534341     
 chl2c          18  0.47925332429683609        2.5694475239060960E-002  0.47925950000000000        2.7153648282618873E-020   5.0494914784209033E-016
 chl          18   2.3992683405706401E-006   5.0062633244972560E-006  0.47925332429683609     
 chl2c          19  0.63367129999999994        3.7570220750293731E-002  0.63367130000000005        8.3478730882328700E-021   1.1166869750710570E-005
 chl          19   3.1799090516500670E-006   5.0182311423131635E-006  0.63367129999999994     
 chl2c          20  0.50678071067155817        3.7020645196759419E-002  0.50678202500000002        8.3478730882328700E-021   8.1561126391835655E-016
 chl          20   2.5431427445291943E-006   5.0182311421426439E-006  0.50678071067155817     
 chl2c          21  0.71973184999999995        3.7838475073783531E-002  0.71973185000000006        8.3478730882328700E-021   1.3535629953479141E-005
 chl          21   3.6117807836619378E-006   5.0182311421426439E-006  0.71973184999999995     
 chl2c          22  0.64616892499999989        3.7613353106285476E-002  0.64616892500000001        8.3478730882328700E-021   9.3224145678249490E-006
 chl          22   3.2426250226300185E-006   5.0182311423131635E-006  0.64616892499999989     
 chl2c          23  0.41564179999983419        3.2286562315070731E-002  0.41564179999999995        6.2171484275139793E-021   3.2393298858784071E-009
 chl          23   2.0808122994671936E-006   5.0062633244972560E-006  0.41564179999983419     
 chl2c          24  0.57597316088699380        3.7348402796863071E-002  0.57597492500000003        8.3478730882328700E-021   7.8491976278197161E-016
 chl          24   2.8903664530014476E-006   5.0182311421426439E-006  0.57597316088699380     
 chl2c          25  0.31406487499993807        4.5426679235459781E-002  0.31406487500000002        2.7010858473413666E-021   2.1507214082805133E-009
 chl          25   1.5722914652250050E-006   5.0062633244972560E-006  0.31406487499993807     
 chl2c          26  0.49347344224486756        4.7955660680174553E-002  0.49427735000000000        2.7010858473413666E-021   4.0976670531282409E-019
 chl          26   2.4704579955238955E-006   5.0062633244972560E-006  0.49347344224486756     
 chl2c          27  0.30962663690468867        4.5333133499525620E-002  0.30964730000000001        2.7010858473413666E-021   6.2664073921928437E-018
 chl          27   1.5500724766233715E-006   5.0062633244972560E-006  0.30962663690468867     
 chl2c          28  0.28772209681305577        3.1209236063453518E-002  0.28776342500000002        6.2171484275139793E-021   6.2276428371273075E-018
 chl          28   1.4404125809226500E-006   5.0062633244972560E-006  0.28772209681305577     
 chl2c          29  0.68676297499999595        3.7743217595736761E-002  0.68676297499999994        8.3478730882328700E-021   4.9339833931831310E-007
 chl          29   3.4463353484155097E-006   5.0182311421426439E-006  0.68676297499999595     
 chl2c          30  0.38929873581515079        2.5380056985171612E-002  0.38930277499999999        2.7153648282618873E-020   5.0941878638716075E-016
 chl          30   1.9489319833845358E-006   5.0062633244972560E-006  0.38929873581515079     
 chl2c          31  0.63559179406189847        3.7576959810037038E-002  0.63559385000000002        8.3478730882328700E-021   8.2015091726316735E-016
 chl          31   3.1895465346517327E-006   5.0182311421426439E-006  0.63559179406189847     
 chl2c          32  0.24722667499999995        2.0893126428578448E-002  0.24722667500000001        8.3478730882328700E-021   3.1535448941474621E-006
 chl          32   1.2376818358899024E-006   5.0062633244972560E-006  0.24722667499999995     
 chl2c          33  0.60343137499999988        3.7458922634011876E-002  0.60343137499999999        8.3478730882328700E-021   1.3251287390606978E-005
 chl          33   3.0281581181709554E-006   5.0182311421426439E-006  0.60343137499999988     
 chl2c          34  0.38240613291450726        2.5350269098008315E-002  0.38241020000000003        2.7153648282618873E-020   4.8816788754143925E-016
 chl          34   1.9144257982727205E-006   5.0062633244972560E-006  0.38240613291450726     
 chl2c          35  0.49573966843427564        2.5740370148566064E-002  0.49574644999999995        2.7153648282618873E-020   4.9201857910568409E-016
 chl          35   2.4818033205809442E-006   5.0062633244972560E-006  0.49573966843427564     
 chl2c          36  0.69587034004908122        3.7770393924465726E-002  0.69587337500000002        8.3478730882328700E-021   6.6596701048611098E-016
 chl          36   3.4920382114463504E-006   5.0182311423131635E-006  0.69587034004908122     
 chl2c          37  0.33193965469833103        2.1353674699533250E-002  0.33194060000000003        8.3478730882328700E-021   4.8651353850249533E-016
 chl          37   1.6617773192625380E-006   5.0062633244972560E-006  0.33193965469833103     
 chl2c          38  0.38455601557647745        2.1543295686358745E-002  0.38455722500000000        8.3478730882328700E-021   5.1037338156121798E-016
 chl          38   1.9251886769953148E-006   5.0062633244972560E-006  0.38455601557647745     
 chl2c          39  0.47090514697848762        2.5670077108751441E-002  0.47091117500000002        2.7153648282618873E-020   4.9945438807638542E-016
 chl          39   2.3574751666353922E-006   5.0062633244972560E-006  0.47090514697848762     
 chl2c          40  0.66875547499999921        3.7687445774703773E-002  0.66875547499999999        8.3478730882328700E-021   2.5923020657451132E-006
 chl          40   3.3559695512374283E-006   5.0182311423131635E-006  0.66875547499999921     
 chl2c          41  0.44304987499999937        2.5582381488167241E-002  0.44304987499999998        2.7153648282618873E-020   4.5261218547107611E-006
 chl          41   2.2180243401355905E-006   5.0062633244972560E-006  0.44304987499999937     
 chl2c          42  0.76234377499999939        3.7949995630725070E-002  0.76234377499999995        8.3478730882328700E-021   4.6438157988004557E-006
 chl          42   3.8256172727235815E-006   5.0182311421426439E-006  0.76234377499999939     
 chl2c          43  0.29539924999999995        2.1185090152268007E-002  0.29539925000000000        8.3478730882328700E-021   8.5594007322516495E-006
 chl          43   1.4788464313589958E-006   5.0062633244972560E-006  0.29539924999999995     
 chl2c          44  0.62417055772433760        3.7536352708156646E-002  0.62417262500000004        8.3478730882328700E-021   7.8660272559384384E-016
 chl          44   3.1322321307808137E-006   5.0182311421426439E-006  0.62417055772433760     
 chl2c          45  0.37627179634822921        4.6544927192009838E-002  0.37662252499999999        2.7010858473413666E-021   5.4568887943699559E-019
 chl          45   1.8837156941008404E-006   5.0062633244972560E-006  0.37627179634822921     
 chl2c          46  0.51875898022698819        3.7083195475449568E-002  0.51876034999999998        8.3478730882328700E-021   8.2002980848317566E-016
 chl          46   2.6032524698412320E-006   5.0182311421426439E-006  0.51875898022698819     
 chl2c          47  0.61962087544319855        3.7519784612651236E-002  0.61962282499999999        8.3478730882328700E-021   8.2198406350021770E-016
 chl          47   3.1094007734707470E-006   5.0182311421426439E-006  0.61962087544319855     
 chl2c          48  0.71424949999999854        3.7823212136301673E-002  0.71424949999999998        8.3478730882328700E-021   1.5747054468010227E-006
 chl          48   3.5842690841598048E-006   5.0182311421426439E-006  0.71424949999999854     
 chl2c          49  0.53275973127231790        3.7152990741888416E-002  0.53276120000000005        8.3478730882328700E-021   8.0661917428623050E-016
 chl          49   2.6735114747502918E-006   5.0182311421426439E-006  0.53275973127231790     
 chl2c          50  0.38132569999999988        2.1533072915600981E-002  0.38132569999999999        8.3478730882328700E-021   6.4742045698664475E-006
 chl          50   1.9090168665982427E-006   5.0062633244972560E-006  0.38132569999999988     
 chl2c          51  0.22275879635231191        2.0700971146093840E-002  0.22275920000000002        8.3478730882328700E-021   5.1311402444392774E-016
 chl          51   1.1151891923877322E-006   5.0062633244972560E-006  0.22275879635231191     
 chl2c          52  0.63698869999999752        3.7581825176985564E-002  0.63698869999999996        8.3478730882328700E-021   6.8431329403882736E-007
 chl          52   3.1965565316415648E-006   5.0182311423131635E-006  0.63698869999999752     
 chl2c          53  0.75269794999999939        3.7925801262726190E-002  0.75269794999999995        8.3478730882328700E-021   4.8422539554646511E-006
 chl          53   3.7772122934452734E-006   5.0182311423131635E-006  0.75269794999999939     
 chl2c          54  0.51860982238313036        3.7082433371327092E-002  0.51861124999999997        8.3478730882328700E-021   7.8635172262362252E-016
 chl          54   2.6025039613040898E-006   5.0182311421426439E-006  0.51860982238313036     
 chl2c          55  0.57808279999999990        3.7357235588660491E-002  0.57808280000000001        8.3478730882328700E-021   1.0874489329555931E-005
 chl          55   2.9009531096970169E-006   5.0182311421426439E-006  0.57808279999999990     
 chl2c          56  0.61625841976117313        3.7507394187257688E-002  0.61626080000000005        8.3478730882328700E-021   6.6596701048611098E-016
 chl          56   3.0925271937582168E-006   5.0182311423131635E-006  0.61625841976117313     
 chl2c          57  0.68163228590662817        3.7727617852646313E-002  0.68163462500000005        8.3478730882328700E-021   8.2908695125646549E-016
 chl          57   3.4205883646265198E-006   5.0182311421426439E-006  0.68163228590662817     
 chl2c          58  0.69416802499999986        3.7765358178394853E-002  0.69416802499999997        8.3478730882328700E-021   1.1176141440870083E-005
 chl          58   3.4834956010530219E-006   5.0182311423131635E-006  0.69416802499999986     
 chl2c          59  0.53705127499999994        3.7173699120809672E-002  0.53705127500000005        8.3478730882328700E-021   1.3501817374912136E-005
 chl          59   2.6950474331324129E-006   5.0182311421426439E-006  0.53705127499999994     
 chl2c          60  0.64452154999999989        3.7607757740906807E-002  0.64452155000000000        8.3478730882328700E-021   1.3120516676557981E-005
 chl          60   3.2343581139920466E-006   5.0182311421426439E-006  0.64452154999999989     
 chl2c          61  0.70793882528422636        3.7805373434125003E-002  0.70794139999999994        8.3478730882328700E-021   8.1247422042261941E-016
 chl          61   3.5526006597731848E-006   5.0182311421426439E-006  0.70793882528422636     
 chl2c          62  0.76481592499999862        3.7956103087269030E-002  0.76481592499999995        8.3478730882328700E-021   1.7617895517983111E-006
 chl          62   3.8380230928416262E-006   5.0182311421426439E-006  0.76481592499999862     
 chl2c          63  0.72597904999999985        3.7855601011927406E-002  0.72597904999999996        8.3478730882328700E-021   1.1020182857485102E-005
 chl          63   3.6431306773769247E-006   5.0182311423131635E-006  0.72597904999999985     
 chl2c          64  0.48435073052054972        2.5708982294816416E-002  0.48435739999999999        2.7153648282618873E-020   4.7756462806505315E-016
 chl          64   2.4247872983984819E-006   5.0062633244972560E-006  0.48435073052054972     
 chl2c          65  0.76379974999999978        3.7953597170552002E-002  0.76379975000000000        8.3478730882328700E-021   1.0773847829330193E-005
 chl          65   3.8329236919410077E-006   5.0182311423131635E-006  0.76379974999999978     
 chl2c          66  0.35127527032715533        3.1840477731474713E-002  0.35213202499999996        6.2171484275139793E-021   4.4880517835282110E-019
 chl          66   1.7585765026416970E-006   5.0062633244972560E-006  0.35127527032715533     
 chl2c          67  0.75736462880636046        3.7937587124568600E-002  0.75736760000000003        8.3478730882328700E-021   8.0579881825872870E-016
 chl          67   3.8006307662333818E-006   5.0182311421426439E-006  0.75736462880636046     
 chl2c          68  0.72590779999999988        3.7855407263856986E-002  0.72590779999999999        8.3478730882328700E-021   1.1176492545646855E-005
 chl          68   3.6427731284080348E-006   5.0182311423131635E-006  0.72590779999999988     
 chl2c          69  0.45524040975010127        2.1732330561541505E-002  0.45524217500000003        8.3478730882328700E-021   4.9003030856855720E-016
 chl          69   2.2790533671610352E-006   5.0062633244972560E-006  0.45524040975010127     
 chl2c          70  0.48684481132320162        3.2658010878182209E-002  0.48694062500000002        6.2171484275139793E-021   7.6913095107746960E-018
 chl          70   2.4372733236491307E-006   5.0062633244972560E-006  0.48684481132320162     
 chl2c          71  0.23986107499999032        4.3481058864416305E-002  0.23986107500000001        2.7010858473413666E-021   8.0058377682085641E-009
 chl          71   1.2008077027469372E-006   5.0062633244972560E-006  0.23986107499999032     
 chl2c          72  0.62790275396093831        3.7549776402781669E-002  0.62790522500000001        8.3478730882328700E-021   6.6596701048611098E-016
 chl          72   3.1509611542709806E-006   5.0182311423131635E-006  0.62790275396093831     
 chl2c          73  0.35293371430436271        3.1852614277819484E-002  0.35362212500000001        6.2171484275139793E-021   5.6356784660314174E-019
 chl          73   1.7668791099005236E-006   5.0062633244972560E-006  0.35293371430436271     
 chl2c          74  0.64719589999999994        3.7616827685877569E-002  0.64719590000000005        8.3478730882328700E-021   1.3612361435934309E-005
 chl          74   3.2477786204470360E-006   5.0182311421426439E-006  0.64719589999999994     
 chl2c          75  0.71553891606004305        3.7826830779512356E-002  0.71554212500000003        8.3478730882328700E-021   6.6596701048611098E-016
 chl          75   3.5907396721095126E-006   5.0182311423131635E-006  0.71553891606004305     
 chl2c          76  0.55513977499999978        3.7257729557919804E-002  0.55513977500000000        8.3478730882328700E-021   5.3764934343483108E-006
 chl          76   2.7858197072417213E-006   5.0182311423131635E-006  0.55513977499999978     
 chl2c          77  0.52973029999999988        3.7138172437479272E-002  0.52973029999999999        8.3478730882328700E-021   1.3046322177716866E-005
 chl          77   2.6583090883965647E-006   5.0182311421426439E-006  0.52973029999999988     
 chl2c          78  0.45114029443988096        4.7515248899399322E-002  0.45117492500000000        2.7010858473413666E-021   7.9378968158886083E-018
 chl          78   2.2585271102572693E-006   5.0062633244972560E-006  0.45114029443988096     
 prod   2.0381091144741584E-009   2.5721873310517577E-014   10.000000000000000     
 dcdom   1.2381359118243858E-012  -3.3235753639467085E-011
 chl2c           1  0.60826437499999997        3.7477407714772232E-002  0.60826437499999997        1.9278633830207506E-021   1.1274946559912368E-005
 chl           1   4.4114118207114626E-007   7.2524579804816988E-007  0.60826437499999997     
 chl2c           2  0.48238771447746215        3.2640259920490348E-002  0.48302390000000001        1.4051545469036983E-021   2.5732096673774568E-019
 chl           2   3.4551937677907692E-007   7.1626902263328704E-007  0.48238771447746215     
 chl2c           3  0.75128612357746638        3.7922212503796585E-002  0.75128689999999998        1.9278633830207506E-021   7.0074387655742059E-016
 chl           3   5.4486710425645559E-007   7.2524579804816988E-007  0.75128612357746638     
 chl2c           4  0.77318742499999993        3.7976509103863923E-002  0.77318742499999993        1.9278633830207506E-021   1.0885013784598947E-005
 chl           4   5.6075093108493441E-007   7.2524579804816988E-007  0.77318742499999993     
 chl2c           5  0.48489530579538836        2.5710500362372445E-002  0.48489679999999996        6.4586143508413725E-021   5.0815544439265223E-016
 chl           5   3.4731548676153164E-007   7.1626902263328704E-007  0.48489530579538836     
 chl2c           6  0.29222854999999692        3.1261039902252048E-002  0.29222855000000003        1.4051545469036983E-021   1.9354003542783871E-008
 chl           6   2.0931425789404044E-007   7.1626902263328704E-007  0.29222854999999692     
 chl2c           7  0.22770739999998327        4.3064391842467263E-002  0.22770740000000000        5.9940125558606158E-022   9.2935464316872171E-010
 chl           7   1.6309975684435496E-007   7.1626902263328704E-007  0.22770739999998327     
 chl2c           8  0.49578364999998292        4.7969800906495587E-002  0.49578364999999996        5.9940125558606158E-022   4.3181939885041772E-009
 chl           8   3.5511447042305142E-007   7.1626902263328704E-007  0.49578364999998292     
 chl2c           9  0.28700202499999994        2.4803669054600401E-002  0.28700202499999999        6.4586143508413725E-021   7.8491290533803654E-006
 chl           9   2.0557065994052417E-007   7.1626902263328704E-007  0.28700202499999994     
 chl2c          10  0.39094566894693272        2.5387016219684602E-002  0.39094662499999999        6.4586143508413725E-021   5.1625138864667826E-016
 chl          10   2.8002227219933610E-007   7.1626902263328704E-007  0.39094566894693272     
 chl2c          11  0.49737528925993418        2.1820572217820047E-002  0.49737575000000001        1.9278633830207506E-021   5.1755807717359561E-016
 chl          11   3.5625451232016150E-007   7.1626902263328704E-007  0.49737528925993418     
 chl2c          12  0.30758206134412552        4.5290941298723353E-002  0.30768942500000002        5.9940125558606158E-022   2.6418243247637242E-019
 chl          12   2.2031150245848852E-007   7.1626902263328704E-007  0.30758206134412552     
 chl2c          13  0.75666274999999972        3.7935816987997487E-002  0.75666275000000005        1.9278633830207506E-021   1.3756276643083551E-006
 chl          13   5.4876647997434983E-007   7.2524579804457147E-007  0.75666274999999972     
 chl2c          14  0.39802928154929701        4.6856526101924839E-002  0.39804095000000000        5.9940125558606158E-022   4.0692768124729224E-018
 chl          14   2.8509604447474442E-007   7.1626902263328704E-007  0.39802928154929701     
 chl2c          15  0.25607250374366208        2.0954299823745293E-002  0.25607262500000000        1.9278633830207506E-021   5.2127621862202936E-016
 chl          15   1.8341680197973156E-007   7.1626902263328704E-007  0.25607250374366208     
 chl2c          16  0.71433214999999983        3.7823443882273475E-002  0.71433214999999994        1.9278633830207506E-021   4.6665859198242763E-006
 chl          16   5.1806639019821483E-007   7.2524579804816988E-007  0.71433214999999983     
 chl2c          17  0.62580806127190147        3.7542254757581245E-002  0.62580860000000005        1.9278633830207506E-021   7.0074387655742059E-016
 chl          17   4.5386466682211816E-007   7.2524579804816988E-007  0.62580806127190147     
 chl2c          18  0.47925807118732749        2.5694475239060960E-002  0.47925950000000000        6.4586143508413725E-021   5.1912773245347430E-016
 chl          18   3.4327771023846137E-007   7.1626902263328704E-007  0.47925807118732749     
 chl2c          19  0.63367130000000005        3.7570220750293731E-002  0.63367130000000005        1.9278633830207506E-021   1.1279165924149096E-005
 chl          19   4.5956744766872132E-007   7.2524579804816988E-007  0.63367130000000005     
 chl2c          20  0.50678173674783378        3.7020645196759419E-002  0.50678202500000002        1.9278633830207506E-021   8.5884706759144217E-016
 chl          20   3.6754132510209665E-007   7.2524579804457147E-007  0.50678173674783378     
 chl2c          21  0.71973185000000006        3.7838475073783531E-002  0.71973185000000006        1.9278633830207506E-021   1.3796131641848392E-005
 chl          21   5.2198249993134584E-007   7.2524579804457147E-007  0.71973185000000006     
 chl2c          22  0.64616892500000001        3.7613353106285476E-002  0.64616892500000001        1.9278633830207506E-021   8.0884560793757152E-006
 chl          22   4.6863129768555303E-007   7.2524579804816988E-007  0.64616892500000001     
 chl2c          23  0.41564179999996376        3.2286562315070731E-002  0.41564179999999995        1.4051545469036983E-021   3.3587032243287162E-009
 chl          23   2.9771134585151422E-007   7.1626902263328704E-007  0.41564179999996376     
 chl2c          24  0.57597454233321965        3.7348402796863071E-002  0.57597492500000003        1.9278633830207506E-021   8.3566528592751365E-016
 chl          24   4.1772311660781272E-007   7.2524579804457147E-007  0.57597454233321965     
 chl2c          25  0.31406487499998759        4.5426679235459781E-002  0.31406487500000002        5.9940125558606158E-022   2.3772485876647256E-009
 chl          25   2.2495494105968656E-007   7.1626902263328704E-007  0.31406487499998759     
 chl2c          26  0.49398914166241137        4.7955660680174553E-002  0.49427735000000000        5.9940125558606158E-022   2.5390381404903323E-019
 chl          26   3.5382911968999179E-007   7.1626902263328704E-007  0.49398914166241137     
 chl2c          27  0.30964017694433188        4.5333133499525620E-002  0.30964730000000001        5.9940125558606158E-022   4.0340931176979572E-018
 chl          27   2.2178566690791466E-007   7.1626902263328704E-007  0.30964017694433188     
 chl2c          28  0.28774891384893519        3.1209236063453518E-002  0.28776342500000002        1.4051545469036983E-021   4.0090504458250498E-018
 chl          28   2.0610563328636672E-007   7.1626902263328704E-007  0.28774891384893519     
 chl2c          29  0.68676244323160118        3.7743217595736761E-002  0.68676297499999994        1.9278633830207506E-021   8.5494296746162212E-016
 chl          29   4.9807157620854233E-007   7.2524579804457147E-007  0.68676244323160118     
 chl2c          30  0.38930183794990691        2.5380056985171612E-002  0.38930277499999999        6.4586143508413725E-021   5.2230057380875123E-016
 chl          30   2.7884484697772211E-007   7.1626902263328704E-007  0.38930183794990691     
 chl2c          31  0.63559339837212037        3.7576959810037038E-002  0.63559385000000002        1.9278633830207506E-021   8.6223287868439447E-016
 chl          31   4.6096144143424966E-007   7.2524579804457147E-007  0.63559339837212037     
 chl2c          32  0.24722667499999995        2.0893126428578448E-002  0.24722667500000001        1.9278633830207506E-021   1.0918925898605444E-006
 chl          32   1.7708080887112726E-007   7.1626902263328704E-007  0.24722667499999995     
 chl2c          33  0.60343137499999999        3.7458922634011876E-002  0.60343137499999999        1.9278633830207506E-021   1.3442926148025932E-005
 chl          33   4.3763606912700807E-007   7.2524579804457147E-007  0.60343137499999999     
 chl2c          34  0.38240926865576064        2.5350269098008315E-002  0.38241020000000003        6.4586143508413725E-021   5.0705725672811302E-016
 chl          34   2.7390791310597176E-007   7.1626902263328704E-007  0.38240926865576064     
 chl2c          35  0.49574489336970323        2.5740370148566064E-002  0.49574644999999995        6.4586143508413725E-021   5.0984919850228598E-016
 chl          35   3.5508671024936043E-007   7.1626902263328704E-007  0.49574489336970323     
 chl2c          36  0.69587270888843766        3.7770393924465726E-002  0.69587337500000002        1.9278633830207506E-021   7.0074387655742059E-016
 chl          36   5.0467875809773673E-007   7.2524579804816988E-007  0.69587270888843766     
 chl2c          37  0.33194039003745779        2.1353674699533250E-002  0.33194060000000003        1.9278633830207506E-021   5.0585367670392097E-016
 chl          37   2.3775861874464199E-007   7.1626902263328704E-007  0.33194039003745779     
 chl2c          38  0.38455695242488491        2.1543295686358745E-002  0.38455722500000000        1.9278633830207506E-021   5.2297592579273965E-016
 chl          38   2.7544623246020776E-007   7.1626902263328704E-007  0.38455695242488491     
 chl2c          39  0.47090978502281811        2.5670077108751441E-002  0.47091117500000002        6.4586143508413725E-021   5.1520301760017944E-016
 chl          39   3.3729809146674522E-007   7.1626902263328704E-007  0.47090978502281811     
 chl2c          40  0.66875547499999988        3.7687445774703773E-002  0.66875547499999999        1.9278633830207506E-021   4.6383504766143689E-006
 chl          40   4.8501209816545779E-007   7.2524579804816988E-007  0.66875547499999988     
 chl2c          41  0.44304987499999987        2.5582381488167241E-002  0.44304987499999998        6.4586143508413725E-021   6.1794380034045781E-006
 chl          41   3.1734290094404992E-007   7.1626902263328704E-007  0.44304987499999987     
 chl2c          42  0.76234377499999995        3.7949995630725070E-002  0.76234377499999995        1.9278633830207506E-021   7.1859747275403441E-006
 chl          42   5.5288661948418615E-007   7.2524579804457147E-007  0.76234377499999995     
 chl2c          43  0.29539925000000000        2.1185090152268007E-002  0.29539925000000000        1.9278633830207506E-021   8.4657303745720331E-006
 chl          43   2.1158533208410602E-007   7.1626902263328704E-007  0.29539925000000000     
 chl2c          44  0.62417217630007515        3.7536352708156646E-002  0.62417262500000004        1.9278633830207506E-021   8.3694975150862368E-016
 chl          44   4.5267824811796495E-007   7.2524579804457147E-007  0.62417217630007515     
 chl2c          45  0.37649685348155271        4.6544927192009838E-002  0.37662252499999999        5.9940125558606158E-022   3.3815703883821848E-019
 chl          45   2.6967303326773965E-007   7.1626902263328704E-007  0.37649685348155271     
 chl2c          46  0.51876004911509255        3.7083195475449568E-002  0.51876034999999998        1.9278633830207506E-021   8.6214269445071975E-016
 chl          46   3.7622854581411639E-007   7.2524579804457147E-007  0.51876004911509255     
 chl2c          47  0.61962239646168837        3.7519784612651236E-002  0.61962282499999999        1.9278633830207506E-021   8.6359698876228406E-016
 chl          47   4.4937853940814702E-007   7.2524579804457147E-007  0.61962239646168837     
 chl2c          48  0.71424949999999987        3.7823212136301673E-002  0.71424949999999998        1.9278633830207506E-021   3.8792233586234174E-006
 chl          48   5.1800644863043608E-007   7.2524579804457147E-007  0.71424949999999987     
 chl2c          49  0.53276087891756818        3.7152990741888416E-002  0.53276120000000005        1.9278633830207506E-021   8.5210797633717892E-016
 chl          49   3.8638258879749906E-007   7.2524579804457147E-007  0.53276087891756818     
 chl2c          50  0.38132569999999999        2.1533072915600981E-002  0.38132569999999999        1.9278633830207506E-021   4.8156408945871959E-006
 chl          50   2.7313178644395403E-007   7.1626902263328704E-007  0.38132569999999999     
 chl2c          51  0.22275910887611997        2.0700971146093840E-002  0.22275920000000002        1.9278633830207506E-021   5.2491039891526292E-016
 chl          51   1.5955544919736041E-007   7.1626902263328704E-007  0.22275910887611997     
 chl2c          52  0.63698869999999985        3.7581825176985564E-002  0.63698869999999996        1.9278633830207506E-021   2.4240494168411940E-006
 chl          52   4.6197337807916616E-007   7.2524579804816988E-007  0.63698869999999985     
 chl2c          53  0.75269794999999995        3.7925801262726190E-002  0.75269794999999995        1.9278633830207506E-021   6.8610167518723181E-006
 chl          53   5.4589102543697147E-007   7.2524579804816988E-007  0.75269794999999995     
 chl2c          54  0.51861094016544795        3.7082433371327092E-002  0.51861124999999997        1.9278633830207506E-021   8.3675828070425511E-016
 chl          54   3.7612040517493580E-007   7.2524579804457147E-007  0.51861094016544795     
 chl2c          55  0.57808280000000001        3.7357235588660491E-002  0.57808280000000001        1.9278633830207506E-021   9.0502032367330474E-006
 chl          55   4.1925212162184041E-007   7.2524579804457147E-007  0.57808280000000001     
 chl2c          56  0.61626027758496649        3.7507394187257688E-002  0.61626080000000005        1.9278633830207506E-021   7.0074387655742059E-016
 chl          56   4.4694017682249573E-007   7.2524579804816988E-007  0.61626027758496649     
 chl2c          57  0.68163410953810943        3.7727617852646313E-002  0.68163462500000005        1.9278633830207506E-021   8.6886570324105883E-016
 chl          57   4.9435227374636707E-007   7.2524579804457147E-007  0.68163410953810943     
 chl2c          58  0.69416802499999997        3.7765358178394853E-002  0.69416802499999997        1.9278633830207506E-021   1.1334221673955507E-005
 chl          58   5.0344244327064697E-007   7.2524579804816988E-007  0.69416802499999997     
 chl2c          59  0.53705127500000005        3.7173699120809672E-002  0.53705127500000005        1.9278633830207506E-021   1.3954904242846709E-005
 chl          59   3.8949418052822965E-007   7.2524579804457147E-007  0.53705127500000005     
 chl2c          60  0.64452155000000000        3.7607757740906807E-002  0.64452155000000000        1.9278633830207506E-021   1.3491027892676579E-005
 chl          60   4.6743654588667416E-007   7.2524579804457147E-007  0.64452155000000000     
 chl2c          61  0.70794083595638346        3.7805373434125003E-002  0.70794139999999994        1.9278633830207506E-021   8.5650094230667400E-016
 chl          61   5.1343111654152842E-007   7.2524579804457147E-007  0.70794083595638346     
 chl2c          62  0.76481592499999973        3.7956103087269030E-002  0.76481592499999995        1.9278633830207506E-021   4.0652014361271203E-006
 chl          62   5.5467953588382197E-007   7.2524579804457147E-007  0.76481592499999973     
 chl2c          63  0.72597904999999996        3.7855601011927406E-002  0.72597904999999996        1.9278633830207506E-021   1.0885234614537907E-005
 chl          63   5.2651325548350215E-007   7.2524579804816988E-007  0.72597904999999996     
 chl2c          64  0.48435588267647911        2.5708982294816416E-002  0.48435739999999999        6.4586143508413725E-021   4.9930013729751057E-016
 chl          64   3.4692911469136472E-007   7.1626902263328704E-007  0.48435588267647911     
 chl2c          65  0.76379975000000000        3.7953597170552002E-002  0.76379975000000000        1.9278633830207506E-021   1.1209469436616226E-005
 chl          65   5.5394255923774268E-007   7.2524579804816988E-007  0.76379975000000000     
 chl2c          66  0.35181904481637755        3.1840477731474713E-002  0.35213202499999996        1.4051545469036983E-021   2.7810072800985222E-019
 chl          66   2.5199708337440337E-007   7.1626902263328704E-007  0.35181904481637755     
 chl2c          67  0.75736695064936710        3.7937587124568600E-002  0.75736760000000003        1.9278633830207506E-021   8.5149100154856716E-016
 chl          67   5.4927719853628383E-007   7.2524579804457147E-007  0.75736695064936710     
 chl2c          68  0.72590779999999999        3.7855407263856986E-002  0.72590779999999999        1.9278633830207506E-021   1.1344278045915507E-005
 chl          68   5.2646158172039129E-007   7.2524579804816988E-007  0.72590779999999999     
 chl2c          69  0.45524178206799365        2.1732330561541505E-002  0.45524217500000003        1.9278633830207506E-021   5.0840926627709584E-016
 chl          69   3.2607558630367766E-007   7.1626902263328704E-007  0.45524178206799365     
 chl2c          70  0.48690700943367854        3.2658010878182209E-002  0.48694062500000002        1.4051545469036983E-021   4.9553655884575569E-018
 chl          70   3.4875640776035760E-007   7.1626902263328704E-007  0.48690700943367854     
 chl2c          71  0.23986107499999654        4.3481058864416305E-002  0.23986107500000001        5.9940125558606158E-022   4.9750743190726917E-009
 chl          71   1.7180505775801708E-007   7.1626902263328704E-007  0.23986107499999654     
 chl2c          72  0.62790522499999968        3.7549776402781669E-002  0.62790522500000001        1.9278633830207506E-021   1.1437670541563215E-006
 chl          72   4.5538562600374041E-007   7.2524579804816988E-007  0.62790522499999968     
 chl2c          73  0.35337074008444785        3.1852614277819484E-002  0.35362212500000001        1.4051545469036983E-021   3.4924073932817405E-019
 chl          73   2.5310851462748876E-007   7.1626902263328704E-007  0.35337074008444785     
 chl2c          74  0.64719590000000005        3.7616827685877569E-002  0.64719590000000005        1.9278633830207506E-021   1.3850889164059475E-005
 chl          74   4.6937610698667469E-007   7.2524579804457147E-007  0.64719590000000005     
 chl2c          75  0.71554142070122528        3.7826830779512356E-002  0.71554212500000003        1.9278633830207506E-021   7.0074387655742059E-016
 chl          75   5.1894340869298141E-007   7.2524579804816988E-007  0.71554142070122528     
 chl2c          76  0.55513977499999989        3.7257729557919804E-002  0.55513977500000000        1.9278633830207506E-021   3.3564991743393347E-006
 chl          76   4.0261278914815637E-007   7.2524579804816988E-007  0.55513977499999989     
 chl2c          77  0.52973029999999999        3.7138172437479272E-002  0.52973029999999999        1.9278633830207506E-021   1.3444919342421745E-005
 chl          77   3.8418467417189025E-007   7.2524579804457147E-007  0.52973029999999999     
 chl2c          78  0.45116299817175270        4.7515248899399322E-002  0.45117492500000000        5.9940125558606158E-022   5.1149467447433949E-018
 chl          78   3.2315407974878475E-007   7.1626902263328704E-007  0.45116299817175270     
 prod   1.2625165985892051E-009   5.7318375073047346E-015   10.000000000000000     
 dcdom   1.2395322243038612E-012  -1.2213813130175490E-011
 chl2c           1  0.60826437499999997        3.7477407714772232E-002  0.60826437499999997        4.2421205162382130E-022   1.1358541146598684E-005
 chl           1   1.0310237257149378E-009   1.6950256633309124E-009  0.60826437499999997     
 chl2c           2  0.48286273427813303        3.2640259920490348E-002  0.48302390000000001        3.0375766206255424E-022   2.1979452876635416E-019
 chl           2   9.3299387426358801E-011   1.9322134595008435E-010  0.48286273427813303     
 chl2c           3  0.75128673738337504        3.7922212503796585E-002  0.75128689999999998        4.2421205162382130E-022   7.3620642273683985E-016
 chl           3   1.2734503003849722E-009   1.6950256633309124E-009  0.75128673738337504     
 chl2c           4  0.77318742499999993        3.7976509103863923E-002  0.77318742499999993        4.2421205162382130E-022   1.0027261041688573E-005
 chl           4   1.3105725279397450E-009   1.6950256633309124E-009  0.77318742499999993     
 chl2c           5  0.48489647222732318        2.5710500362372445E-002  0.48489679999999996        1.4510820131472701E-021   5.2046024026996668E-016
 chl           5   9.3692349010211086E-011   1.9322134595008435E-010  0.48489647222732318     
 chl2c           6  0.29222854999999970        3.1261039902252048E-002  0.29222855000000003        3.0375766206255424E-022   3.8926988825486015E-008
 chl           6   5.6464793756041463E-011   1.9322134595008435E-010  0.29222854999999970     
 chl2c           7  0.22769196382490811        4.3064391842467263E-002  0.22770740000000000        1.2770853235423540E-022   2.1447420640004173E-019
 chl           7   4.3994947712266660E-011   1.9322134595008435E-010  0.22769196382490811     
 chl2c           8  0.49578364999999547        4.7969800906495587E-002  0.49578364999999996        1.2770853235423540E-022   3.4742630828918938E-009
 chl           8   9.5795984153044663E-011   1.9322134595008435E-010  0.49578364999999547     
 chl2c           9  0.28700202499999999        2.4803669054600401E-002  0.28700202499999999        1.4510820131472701E-021   6.4292398599848851E-006
 chl           9   5.5454917560899756E-011   1.9322134595008435E-010  0.28700202499999999     
 chl2c          10  0.39094641432315841        2.5387016219684602E-002  0.39094662499999999        1.4510820131472701E-021   5.2635635018674823E-016
 chl          10   7.5539192369880006E-011   1.9322134595008435E-010  0.39094641432315841     
 chl2c          11  0.49737565049114768        2.1820572217820047E-002  0.49737575000000001        4.2421205162382130E-022   5.2730321149762721E-016
 chl          11   9.6103592630698284E-011   1.9322134595008435E-010  0.49737565049114768     
 chl2c          12  0.30766263758409262        4.5290941298723353E-002  0.30768942500000002        1.2770853235423540E-022   2.2565576160574418E-019
 chl          12   5.9446988932551382E-011   1.9322134595008435E-010  0.30766263758409262     
 chl2c          13  0.75666275000000005        3.7935816987997487E-002  0.75666275000000005        4.2421205162382130E-022   4.3687068245613469E-006
 chl          13   1.2825627797347967E-009   1.6950256633286054E-009  0.75666275000000005     
 chl2c          14  0.39803809042002791        4.6856526101924839E-002  0.39804095000000000        1.2770853235423540E-022   3.5378552483562351E-018
 chl          14   7.6909455570359164E-011   1.9322134595008435E-010  0.39803809042002791     
 chl2c          15  0.25607259875713523        2.0954299823745293E-002  0.25607262500000000        4.2421205162382130E-022   5.2999042914372697E-016
 chl          15   4.9478692192789565E-011   1.9322134595008435E-010  0.25607259875713523     
 chl2c          16  0.71433214999999994        3.7823443882273475E-002  0.71433214999999994        4.2421205162382130E-022   7.2499695909933884E-006
 chl          16   1.2108113263923467E-009   1.6950256633309124E-009  0.71433214999999994     
 chl2c          17  0.62580848716693627        3.7542254757581245E-002  0.62580860000000005        4.2421205162382130E-022   7.3620642273683985E-016
 chl          17   1.0607614460782509E-009   1.6950256633309124E-009  0.62580848716693627     
 chl2c          18  0.47925918463873562        2.5694475239060960E-002  0.47925950000000000        1.4510820131472701E-021   5.2843891223293544E-016
 chl          18   9.2603104714836487E-011   1.9322134595008435E-010  0.47925918463873562     
 chl2c          19  0.63367130000000005        3.7570220750293731E-002  0.63367130000000005        4.2421205162382130E-022   1.1016013187635158E-005
 chl          19   1.0740891156162616E-009   1.6950256633309124E-009  0.63367130000000005     
 chl2c          20  0.50678202500000002        3.7020645196759419E-002  0.50678202500000002        4.2421205162382130E-022   1.8298947603579262E-006
 chl          20   8.5900853808863895E-010   1.6950256633286054E-009  0.50678202500000002     
 chl2c          21  0.71973185000000006        3.7838475073783531E-002  0.71973185000000006        4.2421205162382130E-022   1.3608777734081225E-005
 chl          21   1.2199639564649744E-009   1.6950256633286054E-009  0.71973185000000006     
 chl2c          22  0.64616892500000001        3.7613353106285476E-002  0.64616892500000001        4.2421205162382130E-022   5.6283513072523996E-006
 chl          22   1.0952729107219475E-009   1.6950256633309124E-009  0.64616892500000001     
 chl2c          23  0.41564179999999329        3.2286562315070731E-002  0.41564179999999995        3.0375766206255424E-022   3.9492455298281006E-009
 chl          23   8.0310868029114472E-011   1.9322134595008435E-010  0.41564179999999329     
 chl2c          24  0.57597484420522194        3.7348402796863071E-002  0.57597492500000003        4.2421205162382130E-022   8.7091707911224670E-016
 chl          24   9.7629214235954652E-010   1.6950256633286054E-009  0.57597484420522194     
 chl2c          25  0.31406487499999786        4.5426679235459781E-002  0.31406487500000002        1.2770853235423540E-022   2.9121764142961942E-009
 chl          25   6.0684037863144579E-011   1.9322134595008435E-010  0.31406487499999786     
 chl2c          26  0.49420542868746575        4.7955660680174553E-002  0.49427735000000000        1.2770853235423540E-022   2.1687552081373960E-019
 chl          26   9.5491038106830560E-011   1.9322134595008435E-010  0.49420542868746575     
 chl2c          27  0.30964555435288088        4.5333133499525620E-002  0.30964730000000001        1.2770853235423540E-022   3.5072409954238219E-018
 chl          27   5.9830130779523648E-011   1.9322134595008435E-010  0.30964555435288088     
 chl2c          28  0.28775981668861489        3.1209236063453518E-002  0.28776342500000002        3.0375766206255424E-022   3.4854509808330864E-018
 chl          28   5.5601339090923710E-011   1.9322134595008435E-010  0.28775981668861489     
 chl2c          29  0.68676286201587000        3.7743217595736761E-002  0.68676297499999994        4.2421205162382130E-022   8.8541981339089753E-016
 chl          29   1.1640806757379015E-009   1.6950256633286054E-009  0.68676286201587000     
 chl2c          30  0.38930256781231354        2.5380056985171612E-002  0.38930277499999999        1.4510820131472701E-021   5.3072896473045790E-016
 chl          30   7.5221566134519212E-011   1.9322134595008435E-010  0.38930256781231354     
 chl2c          31  0.63559375381568894        3.7576959810037038E-002  0.63559385000000002        4.2421205162382130E-022   8.9085716058409407E-016
 chl          31   1.0773477241689566E-009   1.6950256633286054E-009  0.63559375381568894     
 chl2c          32  0.24722665059043866        2.0893126428578448E-002  0.24722667500000001        4.2421205162382130E-022   5.3110898070042472E-016
 chl          32   4.7769466181815774E-011   1.9322134595008435E-010  0.24722665059043866     
 chl2c          33  0.60343137499999999        3.7458922634011876E-002  0.60343137499999999        4.2421205162382130E-022   1.2813245962623515E-005
 chl          33   1.0228316666826675E-009   1.6950256633286054E-009  0.60343137499999999     
 chl2c          34  0.38240999582416701        2.5350269098008315E-002  0.38241020000000003        1.4510820131472701E-021   5.1965645990908328E-016
 chl          34   7.3889774097911690E-011   1.9322134595008435E-010  0.38240999582416701     
 chl2c          35  0.49574610820816234        2.5740370148566064E-002  0.49574644999999995        1.4510820131472701E-021   5.2169803709014104E-016
 chl          35   9.5788730277497282E-011   1.9322134595008435E-010  0.49574610820816234     
 chl2c          36  0.69587323548729541        3.7770393924465726E-002  0.69587337500000002        4.2421205162382130E-022   7.3620642273683985E-016
 chl          36   1.1795229925760811E-009   1.6950256633309124E-009  0.69587323548729541     
 chl2c          37  0.33194055494996472        2.1353674699533250E-002  0.33194060000000003        4.2421205162382130E-022   5.1877442975478539E-016
 chl          37   6.4138000802850122E-011   1.9322134595008435E-010  0.33194055494996472     
 chl2c          38  0.38455716595213718        2.1543295686358745E-002  0.38455722500000000        4.2421205162382130E-022   5.3121546106730623E-016
 chl          38   7.4304653200021897E-011   1.9322134595008435E-010  0.38455716595213718     
 chl2c          39  0.47091086888271805        2.5670077108751441E-002  0.47091117500000002        1.4510820131472701E-021   5.2559572662773912E-016
 chl          39   9.0990031908042480E-011   1.9322134595008435E-010  0.47091086888271805     
 chl2c          40  0.66875547499999999        3.7687445774703773E-002  0.66875547499999999        4.2421205162382130E-022   7.2255741591813496E-006
 chl          40   1.1335576926180544E-009   1.6950256633309124E-009  0.66875547499999999     
 chl2c          41  0.44304987499999998        2.5582381488167241E-002  0.44304987499999998        1.4510820131472701E-021   7.3492516029451664E-006
 chl          41   8.5606693170516627E-011   1.9322134595008435E-010  0.44304987499999998     
 chl2c          42  0.76234377499999995        3.7949995630725070E-002  0.76234377499999995        4.2421205162382130E-022   9.9252627683637296E-006
 chl          42   1.2921922629038080E-009   1.6950256633286054E-009  0.76234377499999995     
 chl2c          43  0.29539925000000000        2.1185090152268007E-002  0.29539925000000000        4.2421205162382130E-022   8.1836862643185312E-006
 chl          43   5.7077440677645454E-011   1.9322134595008435E-010  0.29539925000000000     
 chl2c          44  0.62417262499999993        3.7536352708156646E-002  0.62417262500000004        4.2421205162382130E-022   8.6099712796331855E-007
 chl          44   1.0579886177221818E-009   1.6950256633286054E-009  0.62417262499999993     
 chl2c          45  0.37659117071411879        4.6544927192009838E-002  0.37662252499999999        1.2770853235423540E-022   2.8884804256174803E-019
 chl          45   7.2765452878300022E-011   1.9322134595008435E-010  0.37659117071411879     
 chl2c          46  0.51876028592167589        3.7083195475449568E-002  0.51876034999999998        4.2421205162382130E-022   8.9079005014120908E-016
 chl          46   8.7931199775292566E-010   1.6950256633286054E-009  0.51876028592167589     
 chl2c          47  0.61962273369273557        3.7519784612651236E-002  0.61962282499999999        4.2421205162382130E-022   8.9187178735507275E-016
 chl          47   1.0502764351910129E-009   1.6950256633286054E-009  0.61962273369273557     
 chl2c          48  0.71424949999999998        3.7823212136301673E-002  0.71424949999999998        4.2421205162382130E-022   7.0799445426033329E-006
 chl          48   1.2106712325196246E-009   1.6950256633286054E-009  0.71424949999999998     
 chl2c          49  0.53276113184296314        3.7152990741888416E-002  0.53276120000000005        4.2421205162382130E-022   8.8329836519930184E-016
 chl          49   9.0304379089781723E-010   1.6950256633286054E-009  0.53276113184296314     
 chl2c          50  0.38132569999999999        2.1533072915600981E-002  0.38132569999999999        4.2421205162382130E-022   2.0418673585221474E-006
 chl          50   7.3680264999358071E-011   1.9322134595008435E-010  0.38132569999999999     
 chl2c          51  0.22275918023862082        2.0700971146093840E-002  0.22275920000000002        4.2421205162382130E-022   5.3260717764014065E-016
 chl          51   4.3041828628443746E-011   1.9322134595008435E-010  0.22275918023862082     
 chl2c          52  0.63698869999999996        3.7581825176985564E-002  0.63698869999999996        4.2421205162382130E-022   5.1108816761275154E-006
 chl          52   1.0797121937517956E-009   1.6950256633309124E-009  0.63698869999999996     
 chl2c          53  0.75269794999999995        3.7925801262726190E-002  0.75269794999999995        4.2421205162382130E-022   8.9783500188230171E-006
 chl          53   1.2758423419865678E-009   1.6950256633309124E-009  0.75269794999999995     
 chl2c          54  0.51861118455932842        3.7082433371327092E-002  0.51861124999999997        4.2421205162382130E-022   8.7174420894481134E-016
 chl          54   8.7905926711730939E-010   1.6950256633286054E-009  0.51861118455932842     
 chl2c          55  0.57808280000000001        3.7357235588660491E-002  0.57808280000000001        4.2421205162382130E-022   5.6768363276851596E-006
 chl          55   9.7986518152885754E-010   1.6950256633286054E-009  0.57808280000000001     
 chl2c          56  0.61626069058360189        3.7507394187257688E-002  0.61626080000000005        4.2421205162382130E-022   7.3620642273683985E-016
 chl          56   1.0445776858412359E-009   1.6950256633309124E-009  0.61626069058360189     
 chl2c          57  0.68163451498453920        3.7727617852646313E-002  0.68163462500000005        4.2421205162382130E-022   8.9578234970738162E-016
 chl          57   1.1553879959093407E-009   1.6950256633286054E-009  0.68163451498453920     
 chl2c          58  0.69416802499999997        3.7765358178394853E-002  0.69416802499999997        4.2421205162382130E-022   1.1240481719102739E-005
 chl          58   1.1766326170387343E-009   1.6950256633309124E-009  0.69416802499999997     
 chl2c          59  0.53705127500000005        3.7173699120809672E-002  0.53705127500000005        4.2421205162382130E-022   1.3840049428385811E-005
 chl          59   9.1031569364834838E-010   1.6950256633286054E-009  0.53705127500000005     
 chl2c          60  0.64452155000000000        3.7607757740906807E-002  0.64452155000000000        4.2421205162382130E-022   1.3367415195797965E-005
 chl          60   1.0924805678183310E-009   1.6950256633286054E-009  0.64452155000000000     
 chl2c          61  0.70794128009765955        3.7805373434125003E-002  0.70794139999999994        4.2421205162382130E-022   8.8658400891964194E-016
 chl          61   1.1999786378952374E-009   1.6950256633286054E-009  0.70794128009765955     
 chl2c          62  0.76481592499999995        3.7956103087269030E-002  0.76481592499999995        4.2421205162382130E-022   7.2171137670809395E-006
 chl          62   1.2963826205974059E-009   1.6950256633286054E-009  0.76481592499999995     
 chl2c          63  0.72597904999999996        3.7855601011927406E-002  0.72597904999999996        4.2421205162382130E-022   1.0027731522944073E-005
 chl          63   1.2305531207905955E-009   1.6950256633309124E-009  0.72597904999999996     
 chl2c          64  0.48435706881419854        2.5708982294816416E-002  0.48435739999999999        1.4510820131472701E-021   5.1395114179019577E-016
 chl          64   9.3588124756717064E-011   1.9322134595008435E-010  0.48435706881419854     
 chl2c          65  0.76379975000000000        3.7953597170552002E-002  0.76379975000000000        4.2421205162382130E-022   1.1347856267558353E-005
 chl          65   1.2946601778957350E-009   1.6950256633309124E-009  0.76379975000000000     
 chl2c          66  0.35205276313090528        3.1840477731474713E-002  0.35213202499999996        3.0375766206255424E-022   2.3754517747090391E-019
 chl          66   6.8024108737599752E-011   1.9322134595008435E-010  0.35205276313090528     
 chl2c          67  0.75736746218824691        3.7937587124568600E-002  0.75736760000000003        4.2421205162382130E-022   8.8283616302694495E-016
 chl          67   1.2837572849791357E-009   1.6950256633286054E-009  0.75736746218824691     
 chl2c          68  0.72590779999999999        3.7855407263856986E-002  0.72590779999999999        4.2421205162382130E-022   1.1312375493657726E-005
 chl          68   1.2304323502120833E-009   1.6950256633309124E-009  0.72590779999999999     
 chl2c          69  0.45524209057025644        2.1732330561541505E-002  0.45524217500000003        4.2421205162382130E-022   5.2064587914300256E-016
 chl          69   8.7962489473115149E-011   1.9322134595008435E-010  0.45524209057025644     
 chl2c          70  0.48693226773226411        3.2658010878182209E-002  0.48694062500000002        3.0375766206255424E-022   4.3090099226099754E-018
 chl          70   9.4085708157754897E-011   1.9322134595008435E-010  0.48693226773226411     
 chl2c          71  0.23986107499999909        4.3481058864416305E-002  0.23986107500000001        1.2770853235423540E-022   4.0984236607600117E-009
 chl          71   4.6346279752533951E-011   1.9322134595008435E-010  0.23986107499999909     
 chl2c          72  0.62790522500000001        3.7549776402781669E-002  0.62790522500000001        4.2421205162382130E-022   3.6616388014113936E-006
 chl          72   1.0643154705145708E-009   1.6950256633309124E-009  0.62790522500000001     
 chl2c          73  0.35355847172501448        3.1852614277819484E-002  0.35362212500000001        3.0375766206255424E-022   2.9831642801700142E-019
 chl          73   6.8315043778762142E-011   1.9322134595008435E-010  0.35355847172501448     
 chl2c          74  0.64719590000000005        3.7616827685877569E-002  0.64719590000000005        4.2421205162382130E-022   1.3631552946399103E-005
 chl          74   1.0970136597010539E-009   1.6950256633286054E-009  0.64719590000000005     
 chl2c          75  0.71554197748923065        3.7826830779512356E-002  0.71554212500000003        4.2421205162382130E-022   7.3620642273683985E-016
 chl          75   1.2128620150347960E-009   1.6950256633309124E-009  0.71554197748923065     
 chl2c          76  0.55513977499999989        3.7257729557919804E-002  0.55513977500000000        4.2421205162382130E-022   7.7269710099548055E-007
 chl          76   9.4097616536074832E-010   1.6950256633309124E-009  0.55513977499999989     
 chl2c          77  0.52973029999999999        3.7138172437479272E-002  0.52973029999999999        4.2421205162382130E-022   1.3379586636191744E-005
 chl          77   8.9790645314276113E-010   1.6950256633286054E-009  0.52973029999999999     
 chl2c          78  0.45117200273306085        4.7515248899399322E-002  0.45117492500000000        1.2770853235423540E-022   4.4479216671523939E-018
 chl          78   8.7176061623077154E-011   1.9322134595008435E-010  0.45117200273306085     
 prod   1.0783238645775636E-009   1.2257437952502523E-015   10.000000000000000     
 dcdom   1.2440334849330230E-012  -6.9645701973354681E-012
 chl2c           1  0.60826437499999997        3.7477407714772232E-002  0.60826437499999997        9.9954707431890424E-023   1.1361968068754882E-005
 chl           1   7.4334545670732330E-013   1.2220762669313379E-012  0.60826437499999997     
 chl2c           2  0.48298404737885564        3.2640259920490348E-002  0.48302390000000001        7.0735617592923064E-023   2.0703924254443734E-019
 chl           2   1.6791136384074859E-014   3.4765405762778305E-014  0.48298404737885564     
 chl2c           3  0.75128686328055705        3.7922212503796585E-002  0.75128689999999998        9.9954707431890424E-023   7.6822561663376718E-016
 chl           3   9.1812984527245758E-013   1.2220762669313379E-012  0.75128686328055705     
 chl2c           4  0.77318742499999993        3.7976509103863923E-002  0.77318742499999993        9.9954707431890424E-023   8.6355926734457087E-006
 chl           4   9.4489400198225363E-013   1.2220762669313379E-012  0.77318742499999993     
 chl2c           5  0.48489672295275149        2.5710500362372445E-002  0.48489679999999996        3.4539932707090387E-022   5.2702707285423379E-016
 chl           5   1.6857631326493901E-014   3.4765405762778305E-014  0.48489672295275149     
 chl2c           6  0.29222854999999998        3.1261039902252048E-002  0.29222855000000003        7.0735617592923064E-023   5.0756349963046904E-008
 chl           6   1.0159444116218348E-014   3.4765405762778305E-014  0.29222854999999998     
 chl2c           7  0.22770361528776223        4.3064391842467263E-002  0.22770740000000000        2.9493506444358899E-023   2.0202756002249291E-019
 chl           7   7.9162085791306236E-015   3.4765405762778305E-014  0.22770361528776223     
 chl2c           8  0.49578364999999874        4.7969800906495587E-002  0.49578364999999996        2.9493506444358899E-023   2.9772680756627981E-009
 chl           8   1.7236119762801219E-014   3.4765405762778305E-014  0.49578364999999874     
 chl2c           9  0.28700202499999999        2.4803669054600401E-002  0.28700202499999999        3.4539932707090387E-022   4.3792886806946417E-006
 chl           9   9.9777418538640426E-015   3.4765405762778305E-014  0.28700202499999999     
 chl2c          10  0.39094657535799898        2.5387016219684602E-002  0.39094662499999999        3.4539932707090387E-022   5.3171277377465951E-016
 chl          10   1.3591416323889421E-014   3.4765405762778305E-014  0.39094657535799898     
 chl2c          11  0.49737572678050773        2.1820572217820047E-002  0.49737575000000001        9.9954707431890424E-023   5.3246336211903340E-016
 chl          11   1.7291468958081110E-014   3.4765405762778305E-014  0.49737572678050773     
 chl2c          12  0.30768942499999496        4.5290941298723353E-002  0.30768942500000002        2.9493506444358899E-023   2.7655787962597580E-010
 chl          12   1.0696947709040769E-014   3.4765405762778305E-014  0.30768942499999496     
 chl2c          13  0.75666275000000005        3.7935816987997487E-002  0.75666275000000005        9.9954707431890424E-023   7.0675031177418550E-006
 chl          13   9.2469958884570800E-013   1.2220762669309517E-012  0.75666275000000005     
 chl2c          14  0.39804025497857348        4.6856526101924839E-002  0.39804095000000000        2.9493506444358899E-023   3.3616536720137265E-018
 chl          14   1.3838030974249845E-014   3.4765405762778305E-014  0.39804025497857348     
 chl2c          15  0.25607261886975224        2.0954299823745293E-002  0.25607262500000000        9.9954707431890424E-023   5.3459085645028253E-016
 chl          15   8.9024684997442173E-015   3.4765405762778305E-014  0.25607261886975224     
 chl2c          16  0.71433214999999994        3.7823443882273475E-002  0.71433214999999994        9.9954707431890424E-023   9.0552980627067121E-006
 chl          16   8.7296836722103644E-013   1.2220762669313379E-012  0.71433214999999994     
 chl2c          17  0.62580857452187255        3.7542254757581245E-002  0.62580860000000005        9.9954707431890424E-023   7.6822561663376718E-016
 chl          17   7.6478580656531194E-013   1.2220762669313379E-012  0.62580857452187255     
 chl2c          18  0.47925942562790558        2.5694475239060960E-002  0.47925950000000000        3.4539932707090387E-022   5.3336298481164379E-016
 chl          18   1.6661648397590208E-014   3.4765405762778305E-014  0.47925942562790558     
 chl2c          19  0.63367130000000005        3.7570220750293731E-002  0.63367130000000005        9.9954707431890424E-023   1.0393800610611383E-005
 chl          19   7.7439465676552795E-013   1.2220762669313379E-012  0.63367130000000005     
 chl2c          20  0.50678202500000002        3.7020645196759419E-002  0.50678202500000002        9.9954707431890424E-023   4.4881352870884828E-006
 chl          20   6.1932628525970826E-013   1.2220762669309517E-012  0.50678202500000002     
 chl2c          21  0.71973185000000006        3.7838475073783531E-002  0.71973185000000006        9.9954707431890424E-023   1.3156681878694550E-005
 chl          21   8.7956721243930781E-013   1.2220762669309517E-012  0.71973185000000006     
 chl2c          22  0.64616892500000001        3.7613353106285476E-002  0.64616892500000001        9.9954707431890424E-023   3.1229092990642319E-006
 chl          22   7.8966770767103560E-013   1.2220762669313379E-012  0.64616892500000001     
 chl2c          23  0.41564179999999845        3.2286562315070731E-002  0.41564179999999995        7.0735617592923064E-023   4.1020220385637455E-009
 chl          23   1.4449955828971494E-014   3.4765405762778305E-014  0.41564179999999845     
 chl2c          24  0.57597490637593896        3.7348402796863071E-002  0.57597492500000003        9.9954707431890424E-023   8.9023775116307212E-016
 chl          24   7.0388526342981193E-013   1.2220762669309517E-012  0.57597490637593896     
 chl2c          25  0.31406487499999952        4.5426679235459781E-002  0.31406487500000002        2.9493506444358899E-023   3.0825641904054554E-009
 chl          25   1.0918592815211231E-014   3.4765405762778305E-014  0.31406487499999952     
 chl2c          26  0.49425971497244697        4.7955660680174553E-002  0.49427735000000000        2.9493506444358899E-023   2.0428956990607365E-019
 chl          26   1.7183139543212272E-014   3.4765405762778305E-014  0.49425971497244697     
 chl2c          27  0.30964687571963867        4.5333133499525620E-002  0.30964730000000001        2.9493506444358899E-023   3.3325562035664535E-018
 chl          27   1.0764999277569825E-014   3.4765405762778305E-014  0.30964687571963867     
 chl2c          28  0.28776254068316798        3.1209236063453518E-002  0.28776342500000002        7.0735617592923064E-023   3.3118458606703649E-018
 chl          28   1.0004181490178334E-014   3.4765405762778305E-014  0.28776254068316798     
 chl2c          29  0.68676294886643752        3.7743217595736761E-002  0.68676297499999994        9.9954707431890424E-023   9.0196227427333146E-016
 chl          29   8.3927670081718805E-013   1.2220762669309517E-012  0.68676294886643752     
 chl2c          30  0.38930272609303568        2.5380056985171612E-002  0.38930277499999999        3.4539932707090387E-022   5.3517489036097100E-016
 chl          30   1.3534267237180127E-014   3.4765405762778305E-014  0.38930272609303568     
 chl2c          31  0.63559382772372519        3.7576959810037038E-002  0.63559385000000002        9.9954707431890424E-023   9.0633770387755158E-016
 chl          31   7.7674413226896458E-013   1.2220762669309517E-012  0.63559382772372519     
 chl2c          32  0.24722666929540971        2.0893126428578448E-002  0.24722667500000001        9.9954707431890424E-023   5.3547529898052097E-016
 chl          32   8.5949354734351224E-015   3.4765405762778305E-014  0.24722666929540971     
 chl2c          33  0.60343137499999999        3.7458922634011876E-002  0.60343137499999999        9.9954707431890424E-023   1.1548935310659181E-005
 chl          33   7.3743916210901121E-013   1.2220762669309517E-012  0.60343137499999999     
 chl2c          34  0.38241015202163081        2.5350269098008315E-002  0.38241020000000003        3.4539932707090387E-022   5.2638667847834290E-016
 chl          34   1.3294644102837731E-014   3.4765405762778305E-014  0.38241015202163081     
 chl2c          35  0.49574636961658497        2.5740370148566064E-002  0.49574644999999995        3.4539932707090387E-022   5.2801248772626111E-016
 chl          35   1.7234823695144847E-014   3.4765405762778305E-014  0.49574636961658497     
 chl2c          36  0.69587334349750918        3.7770393924465726E-002  0.69587337500000002        9.9954707431890424E-023   7.6822561663376718E-016
 chl          36   8.5041029787846457E-013   1.2220762669313379E-012  0.69587334349750918     
 chl2c          37  0.33194058952462302        2.1353674699533250E-002  0.33194060000000003        9.9954707431890424E-023   5.2568348224810750E-016
 chl          37   1.1540049283959357E-014   3.4765405762778305E-014  0.33194058952462302     
 chl2c          38  0.38455721119973280        2.1543295686358745E-002  0.38455722500000000        9.9954707431890424E-023   5.3555946045158980E-016
 chl          38   1.3369287486361144E-014   3.4765405762778305E-014  0.38455721119973280     
 chl2c          39  0.47091110289167776        2.5670077108751441E-002  0.47091117500000002        3.4539932707090387E-022   5.3110944851915067E-016
 chl          39   1.6371415570226621E-014   3.4765405762778305E-014  0.47091110289167776     
 chl2c          40  0.66875547499999999        3.7687445774703773E-002  0.66875547499999999        9.9954707431890424E-023   9.0375462865266688E-006
 chl          40   8.1727019437789362E-013   1.2220762669313379E-012  0.66875547499999999     
 chl2c          41  0.44304987499999998        2.5582381488167241E-002  0.44304987499999998        3.4539932707090387E-022   7.6009259976188919E-006
 chl          41   1.5402808677523206E-014   3.4765405762778305E-014  0.44304987499999998     
 chl2c          42  0.76234377499999995        3.7949995630725070E-002  0.76234377499999995        9.9954707431890424E-023   1.1451187501968908E-005
 chl          42   9.3164223467004926E-013   1.2220762669309517E-012  0.76234377499999995     
 chl2c          43  0.29539925000000000        2.1185090152268007E-002  0.29539925000000000        9.9954707431890424E-023   7.7688948219335108E-006
 chl          43   1.0269674788270390E-014   3.4765405762778305E-014  0.29539925000000000     
 chl2c          44  0.62417262500000004        3.7536352708156646E-002  0.62417262500000004        9.9954707431890424E-023   3.3242040954399375E-006
 chl          44   7.6278655148049290E-013   1.2220762669309517E-012  0.62417262500000004     
 chl2c          45  0.37661483738281809        4.6544927192009838E-002  0.37662252499999999        2.9493506444358899E-023   2.7208736850489470E-019
 chl          45   1.3093167637896438E-014   3.4765405762778305E-014  0.37661483738281809     
 chl2c          46  0.51876033515970299        3.7083195475449568E-002  0.51876034999999998        9.9954707431890424E-023   9.0628376701632820E-016
 chl          46   6.3396469382381914E-013   1.2220762669309517E-012  0.51876033515970299     
 chl2c          47  0.61962280384819013        3.7519784612651236E-002  0.61962282499999999        9.9954707431890424E-023   9.0715295951987146E-016
 chl          47   7.5722632303208552E-013   1.2220762669309517E-012  0.61962280384819013     
 chl2c          48  0.71424949999999998        3.7823212136301673E-002  0.71424949999999998        9.9954707431890424E-023   9.4110297983539396E-006
 chl          48   8.7286736261729878E-013   1.2220762669309517E-012  0.71424949999999998     
 chl2c          49  0.53276118424297414        3.7152990741888416E-002  0.53276120000000005        9.9954707431890424E-023   9.0025215929637965E-016
 chl          49   6.5107479920536682E-013   1.2220762669309517E-012  0.53276118424297414     
 chl2c          50  0.38132568627752689        2.1533072915600981E-002  0.38132569999999999        9.9954707431890424E-023   5.2958174581310250E-016
 chl          50   1.3256942211208125E-014   3.4765405762778305E-014  0.38132568627752689     
 chl2c          51  0.22275919537889155        2.0700971146093840E-002  0.22275920000000002        9.9954707431890424E-023   5.3665895994447594E-016
 chl          51   7.7443138147371743E-015   3.4765405762778305E-014  0.22275919537889155     
 chl2c          52  0.63698869999999996        3.7581825176985564E-002  0.63698869999999996        9.9954707431890424E-023   7.3641363308320716E-006
 chl          52   7.7844877257344586E-013   1.2220762669313379E-012  0.63698869999999996     
 chl2c          53  0.75269794999999995        3.7925801262726190E-002  0.75269794999999995        9.9954707431890424E-023   1.0219564438700316E-005
 chl          53   9.1985430086287077E-013   1.2220762669313379E-012  0.75269794999999995     
 chl2c          54  0.51861123491226746        3.7082433371327092E-002  0.51861124999999997        9.9954707431890424E-023   8.9090856937141253E-016
 chl          54   6.3378248195003468E-013   1.2220762669309517E-012  0.51861123491226746     
 chl2c          55  0.57808280000000001        3.7357235588660491E-002  0.57808280000000001        9.9954707431890424E-023   2.5830074130642570E-006
 chl          55   7.0646127020099195E-013   1.2220762669309517E-012  0.57808280000000001     
 chl2c          56  0.61626077529336831        3.7507394187257688E-002  0.61626080000000005        9.9954707431890424E-023   7.6822561663376718E-016
 chl          56   7.5311766772673163E-013   1.2220762669313379E-012  0.61626077529336831     
 chl2c          57  0.68163459949084859        3.7727617852646313E-002  0.68163462500000005        9.9954707431890424E-023   9.1029155863769319E-016
 chl          57   8.3300946675675069E-013   1.2220762669309517E-012  0.68163459949084859     
 chl2c          58  0.69416802499999997        3.7765358178394853E-002  0.69416802499999997        9.9954707431890424E-023   1.0910621808157753E-005
 chl          58   8.4832626861509953E-013   1.2220762669313379E-012  0.69416802499999997     
 chl2c          59  0.53705127500000005        3.7173699120809672E-002  0.53705127500000005        9.9954707431890424E-023   1.3485905522508426E-005
 chl          59   6.5631761730250806E-013   1.2220762669309517E-012  0.53705127500000005     
 chl2c          60  0.64452155000000000        3.7607757740906807E-002  0.64452155000000000        9.9954707431890424E-023   1.2903248586937667E-005
 chl          60   7.8765448978055073E-013   1.2220762669309517E-012  0.64452155000000000     
 chl2c          61  0.70794137225861142        3.7805373434125003E-002  0.70794139999999994        9.9954707431890424E-023   9.0290002674161904E-016
 chl          61   8.6515834941577903E-013   1.2220762669309517E-012  0.70794137225861142     
 chl2c          62  0.76481592499999995        3.7956103087269030E-002  0.76481592499999995        9.9954707431890424E-023   9.4766602976823864E-006
 chl          62   9.3466339051334275E-013   1.2220762669309517E-012  0.76481592499999995     
 chl2c          63  0.72597904999999996        3.7855601011927406E-002  0.72597904999999996        9.9954707431890424E-023   8.6363389540357849E-006
 chl          63   8.8720176729435903E-013   1.2220762669313379E-012  0.72597904999999996     
 chl2c          64  0.48435732235836981        2.5708982294816416E-002  0.48435739999999999        3.4539932707090387E-022   5.2182953378362217E-016
 chl          64   1.6838878845961539E-014   3.4765405762778305E-014  0.48435732235836981     
 chl2c          65  0.76379975000000000        3.7953597170552002E-002  0.76379975000000000        9.9954707431890424E-023   1.1361746514085047E-005
 chl          65   9.3342154716308913E-013   1.2220762669313379E-012  0.76379975000000000     
 chl2c          66  0.35211242697946527        3.1840477731474713E-002  0.35213202499999996        7.0735617592923064E-023   2.2376019024927352E-019
 chl          66   1.2241331398057757E-014   3.4765405762778305E-014  0.35211242697946527     
 chl2c          67  0.75736756814318185        3.7937587124568600E-002  0.75736760000000003        9.9954707431890424E-023   8.9987935138471502E-016
 chl          67   9.2556093037099285E-013   1.2220762669309517E-012  0.75736756814318185     
 chl2c          68  0.72590779999999999        3.7855407263856986E-002  0.72590779999999999        9.9954707431890424E-023   1.1116866584797919E-005
 chl          68   8.8711469436034017E-013   1.2220762669313379E-012  0.72590779999999999     
 chl2c          69  0.45524215535267293        2.1732330561541505E-002  0.45524217500000003        9.9954707431890424E-023   5.2717492023947120E-016
 chl          69   1.5826678251157433E-014   3.4765405762778305E-014  0.45524215535267293     
 chl2c          70  0.48693857694385756        3.2658010878182209E-002  0.48694062500000002        7.0735617592923064E-023   4.0946471921602356E-018
 chl          70   1.6928617209003052E-014   3.4765405762778305E-014  0.48693857694385756     
 chl2c          71  0.23986107499999978        4.3481058864416305E-002  0.23986107500000001        2.9493506444358899E-023   3.7008075652703896E-009
 chl          71   8.3388675990711914E-015   3.4765405762778305E-014  0.23986107499999978     
 chl2c          72  0.62790522500000001        3.7549776402781669E-002  0.62790522500000001        9.9954707431890424E-023   6.0544253184761737E-006
 chl          72   7.6734807335468178E-013   1.2220762669313379E-012  0.62790522500000001     
 chl2c          73  0.35360638694243662        3.1852614277819484E-002  0.35362212500000001        7.0735617592923064E-023   2.8100662243109770E-019
 chl          73   1.2293269522363802E-014   3.4765405762778305E-014  0.35360638694243662     
 chl2c          74  0.64719590000000005        3.7616827685877569E-002  0.64719590000000005        9.9954707431890424E-023   1.3123962726981669E-005
 chl          74   7.9092274944501765E-013   1.2220762669309517E-012  0.64719590000000005     
 chl2c          75  0.71554209169151628        3.7826830779512356E-002  0.71554212500000003        9.9954707431890424E-023   7.6822561663376718E-016
 chl          75   8.7444700824660929E-013   1.2220762669313379E-012  0.71554209169151628     
 chl2c          76  0.55513975495116474        3.7257729557919804E-002  0.55513977500000000        9.9954707431890424E-023   7.6822561663376718E-016
 chl          76   6.7842311935589711E-013   1.2220762669313379E-012  0.55513975495116474     
 chl2c          77  0.52973029999999999        3.7138172437479272E-002  0.52973029999999999        9.9954707431890424E-023   1.3094877554438278E-005
 chl          77   6.4737082750421314E-013   1.2220762669309517E-012  0.52973029999999999     
 chl2c          78  0.45117421479321485        4.7515248899399322E-002  0.45117492500000000        2.9493506444358899E-023   4.2266941378969852E-018
 chl          78   1.5685254646989008E-014   3.4765405762778305E-014  0.45117421479321485     
 prod   1.0157222229765518E-009   2.8383123090798043E-016   10.000000000000000     
 dcdom   1.2490508248569172E-012  -4.9742154754355376E-012
 chl2c           1  0.60826437499999997        3.7477407714772232E-002  0.60826437499999997        0.0000000000000000        1.1341338498810964E-005
 chl           1   1.7595535161749948E-016   2.8927446493557920E-016  0.60826437499999997     
 chl2c           2  0.48302390000000001        3.2640259920490348E-002  0.48302390000000001        0.0000000000000000        1.9429151014573997E-019
 chl           2   2.5217421269946616E-018   5.2207398577889454E-018  0.48302390000000001     
 chl2c           3  0.75128689999999998        3.7922212503796585E-002  0.75128689999999998        0.0000000000000000        7.9600845366820752E-016
 chl           3   2.1732811601060999E-016   2.8927446493557920E-016  0.75128689999999998     
 chl2c           4  0.77318742499999993        3.7976509103863923E-002  0.77318742499999993        0.0000000000000000        6.9043875796764806E-006
 chl           4   2.2366337866179327E-016   2.8927446493557920E-016  0.77318742499999993     
 chl2c           5  0.48489679999999996        2.5710500362372445E-002  0.48489679999999996        0.0000000000000000        5.3109677434889963E-016
 chl           5   2.5315200506743143E-018   5.2207398577889454E-018  0.48489679999999996     
 chl2c           6  0.29222855000000003        3.1261039902252048E-002  0.29222855000000003        0.0000000000000000        5.3983588169394966E-008
 chl           6   1.5256492385688699E-018   5.2207398577889454E-018  0.29222855000000003     
 chl2c           7  0.22770740000000000        4.3064391842467263E-002  0.22770740000000000        0.0000000000000000        1.8958829862661344E-019
 chl           7   1.1888010990934905E-018   5.2207398577889454E-018  0.22770740000000000     
 chl2c           8  0.49578364999999996        4.7969800906495587E-002  0.49578364999999996        0.0000000000000000        2.3926709762546565E-009
 chl           8   2.5883574623950842E-018   5.2207398577889454E-018  0.49578364999999996     
 chl2c           9  0.28700202499999999        2.4803669054600401E-002  0.28700202499999999        0.0000000000000000        2.2949863189663348E-006
 chl           9   1.4983629111836392E-018   5.2207398577889454E-018  0.28700202499999999     
 chl2c          10  0.39094662499999999        2.5387016219684602E-002  0.39094662499999999        0.0000000000000000        5.3501879078752367E-016
 chl          10   2.0410306274055682E-018   5.2207398577889454E-018  0.39094662499999999     
 chl2c          11  0.49737575000000001        2.1820572217820047E-002  0.49737575000000001        0.0000000000000000        5.3564609729013948E-016
 chl          11   2.5966694023226700E-018   5.2207398577889454E-018  0.49737575000000001     
 chl2c          12  0.30768942500000002        4.5290941298723353E-002  0.30768942500000002        0.0000000000000000        9.1731165889373709E-010
 chl          12   1.6063664449176625E-018   5.2207398577889454E-018  0.30768942500000002     
 chl2c          13  0.75666275000000005        3.7935816987997487E-002  0.75666275000000005        0.0000000000000000        8.9997745641896611E-006
 chl          13   2.1888321214289557E-016   2.8927446493552847E-016  0.75666275000000005     
 chl2c          14  0.39804095000000000        4.6856526101924839E-002  0.39804095000000000        0.0000000000000000        3.1854669894806735E-018
 chl          14   2.0780682526971769E-018   5.2207398577889454E-018  0.39804095000000000     
 chl2c          15  0.25607262500000000        2.0954299823745293E-002  0.25607262500000000        0.0000000000000000        5.3742283074441663E-016
 chl          15   1.3368885598261420E-018   5.2207398577889454E-018  0.25607262500000000     
 chl2c          16  0.71433214999999994        3.7823443882273475E-002  0.71433214999999994        0.0000000000000000        1.0124232180071406E-005
 chl          16   2.0663805047753189E-016   2.8927446493557920E-016  0.71433214999999994     
 chl2c          17  0.62580860000000005        3.7542254757581245E-002  0.62580860000000005        0.0000000000000000        7.9600845366820752E-016
 chl          17   1.8103044791708392E-016   2.8927446493557920E-016  0.62580860000000005     
 chl2c          18  0.47925950000000000        2.5694475239060960E-002  0.47925950000000000        0.0000000000000000        5.3639763295176509E-016
 chl          18   2.5020891738740011E-018   5.2207398577889454E-018  0.47925950000000000     
 chl2c          19  0.63367130000000005        3.7570220750293731E-002  0.63367130000000005        0.0000000000000000        9.4073419104816131E-006
 chl          19   1.8330492625253290E-016   2.8927446493557920E-016  0.63367130000000005     
 chl2c          20  0.50678202500000002        3.7020645196759419E-002  0.50678202500000002        0.0000000000000000        6.7694143624840812E-006
 chl          20   1.4659909912081861E-016   2.8927446493552847E-016  0.50678202500000002     
 chl2c          21  0.71973185000000006        3.7838475073783531E-002  0.71973185000000006        0.0000000000000000        1.2501952599320161E-005
 chl          21   2.0820004580580806E-016   2.8927446493552847E-016  0.71973185000000006     
 chl2c          22  0.64616892500000001        3.7613353106285476E-002  0.64616892500000001        0.0000000000000000        1.0647046739511918E-006
 chl          22   1.8692017003737340E-016   2.8927446493557920E-016  0.64616892500000001     
 chl2c          23  0.41564179999999995        3.2286562315070731E-002  0.41564179999999995        0.0000000000000000        3.8890378054968391E-009
 chl          23   2.1699577118231410E-018   5.2207398577889454E-018  0.41564179999999995     
 chl2c          24  0.57597492500000003        3.7348402796863071E-002  0.57597492500000003        0.0000000000000000        9.0239752701200658E-016
 chl          24   1.6661483824565615E-016   2.8927446493552847E-016  0.57597492500000003     
 chl2c          25  0.31406487500000002        4.5426679235459781E-002  0.31406487500000002        0.0000000000000000        2.9477994494966295E-009
 chl          25   1.6396510108440031E-018   5.2207398577889454E-018  0.31406487500000002     
 chl2c          26  0.49427735000000000        4.7955660680174553E-002  0.49427735000000000        0.0000000000000000        1.9171108027230136E-019
 chl          26   2.5804934619472970E-018   5.2207398577889454E-018  0.49427735000000000     
 chl2c          27  0.30964730000000001        4.5333133499525620E-002  0.30964730000000001        0.0000000000000000        3.1578870101749149E-018
 chl          27   1.6165880009667309E-018   5.2207398577889454E-018  0.30964730000000001     
 chl2c          28  0.28776342500000002        3.1209236063453518E-002  0.28776342500000002        0.0000000000000000        3.1382568317058176E-018
 chl          28   1.5023379825113599E-018   5.2207398577889454E-018  0.28776342500000002     
 chl2c          29  0.68676297499999994        3.7743217595736761E-002  0.68676297499999994        0.0000000000000000        9.1231542682282902E-016
 chl          29   1.9866299213065669E-016   2.8927446493552847E-016  0.68676297499999994     
 chl2c          30  0.38930277499999999        2.5380056985171612E-002  0.38930277499999999        0.0000000000000000        5.3791024882398416E-016
 chl          30   2.0324485141903418E-018   5.2207398577889454E-018  0.38930277499999999     
 chl2c          31  0.63559385000000002        3.7576959810037038E-002  0.63559385000000002        0.0000000000000000        9.1600596242243230E-016
 chl          31   1.8386107087506255E-016   2.8927446493552847E-016  0.63559385000000002     
 chl2c          32  0.24722667500000001        2.0893126428578448E-002  0.24722667500000001        0.0000000000000000        5.3816090968822342E-016
 chl          32   1.2907061560811338E-018   5.2207398577889454E-018  0.24722667500000001     
 chl2c          33  0.60343137499999999        3.7458922634011876E-002  0.60343137499999999        0.0000000000000000        9.8849520897580669E-006
 chl          33   1.7455728812843523E-016   2.8927446493552847E-016  0.60343137499999999     
 chl2c          34  0.38241020000000003        2.5350269098008315E-002  0.38241020000000003        0.0000000000000000        5.3055992861667768E-016
 chl          34   1.9964641731650424E-018   5.2207398577889454E-018  0.38241020000000003     
 chl2c          35  0.49574644999999995        2.5740370148566064E-002  0.49574644999999995        0.0000000000000000        5.3192245823463207E-016
 chl          35   2.5881632508723743E-018   5.2207398577889454E-018  0.49574644999999995     
 chl2c          36  0.69587337500000002        3.7770393924465726E-002  0.69587337500000002        0.0000000000000000        7.9600845366820752E-016
 chl          36   2.0129839821604067E-016   2.8927446493557920E-016  0.69587337500000002     
 chl2c          37  0.33194060000000003        2.1353674699533250E-002  0.33194060000000003        0.0000000000000000        5.2997020122352708E-016
 chl          37   1.7329755208383775E-018   5.2207398577889454E-018  0.33194060000000003     
 chl2c          38  0.38455722500000000        2.1543295686358745E-002  0.38455722500000000        0.0000000000000000        5.3823112784910060E-016
 chl          38   2.0076732321582116E-018   5.2207398577889454E-018  0.38455722500000000     
 chl2c          39  0.47091117500000002        2.5670077108751441E-002  0.47091117500000002        0.0000000000000000        5.3451437571784891E-016
 chl          39   2.4585047408007252E-018   5.2207398577889454E-018  0.47091117500000002     
 chl2c          40  0.66875547499999999        3.7687445774703773E-002  0.66875547499999999        0.0000000000000000        1.0112552549206309E-005
 chl          40   1.9345388220336410E-016   2.8927446493557920E-016  0.66875547499999999     
 chl2c          41  0.44304987499999998        2.5582381488167241E-002  0.44304987499999998        0.0000000000000000        7.4996224664892879E-006
 chl          41   2.3130481414009099E-018   5.2207398577889454E-018  0.44304987499999998     
 chl2c          42  0.76234377499999995        3.7949995630725070E-002  0.76234377499999995        0.0000000000000000        1.2108582004972699E-005
 chl          42   2.2052658761005589E-016   2.8927446493552847E-016  0.76234377499999995     
 chl2c          43  0.29539925000000000        2.1185090152268007E-002  0.29539925000000000        0.0000000000000000        7.1253622281325016E-006
 chl          43   1.5422026384359612E-018   5.2207398577889454E-018  0.29539925000000000     
 chl2c          44  0.62417262500000004        3.7536352708156646E-002  0.62417262500000004        0.0000000000000000        5.6255208533711791E-006
 chl          44   1.8055720212427926E-016   2.8927446493552847E-016  0.62417262500000004     
 chl2c          45  0.37662252499999999        4.6544927192009838E-002  0.37662252499999999        0.0000000000000000        2.5533637668992414E-019
 chl          45   1.9662482276086134E-018   5.2207398577889454E-018  0.37662252499999999     
 chl2c          46  0.51876034999999998        3.7083195475449568E-002  0.51876034999999998        0.0000000000000000        9.1596050342827482E-016
 chl          46   1.5006412267601746E-016   2.8927446493552847E-016  0.51876034999999998     
 chl2c          47  0.61962282499999999        3.7519784612651236E-002  0.61962282499999999        0.0000000000000000        9.1669296899607744E-016
 chl          47   1.7924106116371559E-016   2.8927446493552847E-016  0.61962282499999999     
 chl2c          48  0.71424949999999998        3.7823212136301673E-002  0.71424949999999998        0.0000000000000000        1.0788717470758724E-005
 chl          48   2.0661414194296874E-016   2.8927446493552847E-016  0.71424949999999998     
 chl2c          49  0.53276120000000005        3.7152990741888416E-002  0.53276120000000005        0.0000000000000000        9.1087142904803746E-016
 chl          49   1.5411421106841007E-016   2.8927446493552847E-016  0.53276120000000005     
 chl2c          50  0.38132569999999999        2.1533072915600981E-002  0.38132569999999999        0.0000000000000000        5.3323637478201537E-016
 chl          50   1.9908022807892699E-018   5.2207398577889454E-018  0.38132569999999999     
 chl2c          51  0.22275920000000002        2.0700971146093840E-002  0.22275920000000002        0.0000000000000000        5.3914823240859076E-016
 chl          51   1.1629678341291793E-018   5.2207398577889454E-018  0.22275920000000002     
 chl2c          52  0.63698869999999996        3.7581825176985564E-002  0.63698869999999996        0.0000000000000000        8.9253138411195727E-006
 chl          52   1.8426456536251016E-016   2.8927446493557920E-016  0.63698869999999996     
 chl2c          53  0.75269794999999995        3.7925801262726190E-002  0.75269794999999995        0.0000000000000000        1.0837472256256858E-005
 chl          53   2.1773629674435733E-016   2.8927446493557920E-016  0.75269794999999995     
 chl2c          54  0.51861124999999997        3.7082433371327092E-002  0.51861124999999997        0.0000000000000000        9.0296611297524380E-016
 chl          54   1.5002099185329559E-016   2.8927446493552847E-016  0.51861124999999997     
 chl2c          55  0.57808280000000001        3.7357235588660491E-002  0.57808280000000001        0.0000000000000000        3.3004616966469539E-007
 chl          55   1.6722459265843211E-016   2.8927446493552847E-016  0.57808280000000001     
 chl2c          56  0.61626080000000005        3.7507394187257688E-002  0.61626080000000005        0.0000000000000000        7.9600845366820752E-016
 chl          56   1.7826851318077200E-016   2.8927446493557920E-016  0.61626080000000005     
 chl2c          57  0.68163462500000005        3.7727617852646313E-002  0.68163462500000005        0.0000000000000000        9.1933597805083771E-016
 chl          57   1.9717949142840462E-016   2.8927446493552847E-016  0.68163462500000005     
 chl2c          58  0.69416802499999997        3.7765358178394853E-002  0.69416802499999997        0.0000000000000000        1.0287291213632984E-005
 chl          58   2.0080508400726275E-016   2.8927446493557920E-016  0.69416802499999997     
 chl2c          59  0.53705127500000005        3.7173699120809672E-002  0.53705127500000005        0.0000000000000000        1.3117969524780442E-005
 chl          59   1.5535522021856838E-016   2.8927446493552847E-016  0.53705127500000005     
 chl2c          60  0.64452155000000000        3.7607757740906807E-002  0.64452155000000000        0.0000000000000000        1.2183129936472318E-005
 chl          60   1.8644362651566746E-016   2.8927446493552847E-016  0.64452155000000000     
 chl2c          61  0.70794139999999994        3.7805373434125003E-002  0.70794139999999994        0.0000000000000000        9.1310687677598398E-016
 chl          61   2.0478936969070892E-016   2.8927446493552847E-016  0.70794139999999994     
 chl2c          62  0.76481592499999995        3.7956103087269030E-002  0.76481592499999995        0.0000000000000000        1.0792233982936592E-005
 chl          62   2.2124171747854625E-016   2.8927446493552847E-016  0.76481592499999995     
 chl2c          63  0.72597904999999996        3.7855601011927406E-002  0.72597904999999996        0.0000000000000000        6.9053539403498400E-006
 chl          63   2.1000720124319008E-016   2.8927446493557920E-016  0.72597904999999996     
 chl2c          64  0.48435739999999999        2.5708982294816416E-002  0.48435739999999999        0.0000000000000000        5.2673370166615776E-016
 chl          64   2.5287039835950233E-018   5.2207398577889454E-018  0.48435739999999999     
 chl2c          65  0.76379975000000000        3.7953597170552002E-002  0.76379975000000000        0.0000000000000000        1.1342127304295729E-005
 chl          65   2.2094776399917915E-016   2.8927446493557920E-016  0.76379975000000000     
 chl2c          66  0.35213202499999996        3.1840477731474713E-002  0.35213202499999996        0.0000000000000000        2.0998331514672675E-019
 chl          66   1.8383896981214333E-018   5.2207398577889454E-018  0.35213202499999996     
 chl2c          67  0.75736760000000003        3.7937587124568600E-002  0.75736760000000003        0.0000000000000000        9.1055651750935213E-016
 chl          67   2.1908710724950536E-016   2.8927446493552847E-016  0.75736760000000003     
 chl2c          68  0.72590779999999999        3.7855407263856986E-002  0.72590779999999999        0.0000000000000000        1.0685960100839348E-005
 chl          68   2.0998659043756343E-016   2.8927446493557920E-016  0.72590779999999999     
 chl2c          69  0.45524217500000003        2.1732330561541505E-002  0.45524217500000003        0.0000000000000000        5.3122068676069194E-016
 chl          69   2.3767009679690303E-018   5.2207398577889454E-018  0.45524217500000003     
 chl2c          70  0.48694062500000002        3.2658010878182209E-002  0.48694062500000002        0.0000000000000000        3.8802768395635673E-018
 chl          70   2.5421903293141604E-018   5.2207398577889454E-018  0.48694062500000002     
 chl2c          71  0.23986107500000001        4.3481058864416305E-002  0.23986107500000001        0.0000000000000000        3.3428028589255284E-009
 chl          71   1.2522522745846037E-018   5.2207398577889454E-018  0.23986107500000001     
 chl2c          72  0.62790522500000001        3.7549776402781669E-002  0.62790522500000001        0.0000000000000000        7.8879973837648818E-006
 chl          72   1.8163694799212948E-016   2.8927446493557920E-016  0.62790522500000001     
 chl2c          73  0.35362212500000001        3.1852614277819484E-002  0.35362212500000001        0.0000000000000000        2.6370678180836532E-019
 chl          73   1.8461691225835246E-018   5.2207398577889454E-018  0.35362212500000001     
 chl2c          74  0.64719590000000005        3.7616827685877569E-002  0.64719590000000005        0.0000000000000000        1.2388935917661626E-005
 chl          74   1.8721724768096781E-016   2.8927446493552847E-016  0.64719590000000005     
 chl2c          75  0.71554212500000003        3.7826830779512356E-002  0.71554212500000003        0.0000000000000000        7.9600845366820752E-016
 chl          75   2.0698806534824234E-016   2.8927446493557920E-016  0.71554212500000003     
 chl2c          76  0.55513977500000000        3.7257729557919804E-002  0.55513977500000000        0.0000000000000000        7.9600845366820752E-016
 chl          76   1.6058776137758284E-016   2.8927446493557920E-016  0.55513977500000000     
 chl2c          77  0.52973029999999999        3.7138172437479272E-002  0.52973029999999999        0.0000000000000000        1.2693877595693262E-005
 chl          77   1.5323744909263697E-016   2.8927446493552847E-016  0.52973029999999999     
 chl2c          78  0.45117492500000000        4.7515248899399322E-002  0.45117492500000000        0.0000000000000000        4.0054539575931944E-018
 chl          78   2.3554669137824383E-018   5.2207398577889454E-018  0.45117492500000000     
 prod   9.5316055081912409E-010   0.0000000000000000        10.000000000000000     
 dcdom   1.2540851429805534E-012  -2.9849696916360579E-012
 chl2c           1  0.60826437499999997        3.7477407714772232E-002  0.60826437499999997        0.0000000000000000        1.1191984844203913E-005
 chl           1   9.1717597279370257E-021   1.5078574555573843E-020  0.60826437499999997     
 chl2c           2  0.48302390000000001        3.2640259920490348E-002  0.48302390000000001        0.0000000000000000        1.8154068458185180E-019
 chl           2   7.7925973424940961E-023   1.6132943613129902E-022  0.48302390000000001     
 chl2c           3  0.75128689999999998        3.7922212503796585E-002  0.75128689999999998        0.0000000000000000        8.1690767031783070E-016
 chl           3   1.1328335534275951E-020   1.5078574555573843E-020  0.75128689999999998     
 chl2c           4  0.77318742499999993        3.7976509103863923E-002  0.77318742499999993        0.0000000000000000        4.7550095232996152E-006
 chl           4   1.1658564233294658E-020   1.5078574555573843E-020  0.77318742499999993     
 chl2c           5  0.48489679999999996        2.5710500362372445E-002  0.48489679999999996        0.0000000000000000        5.3399189277032131E-016
 chl           5   7.8228127325871270E-023   1.6132943613129902E-022  0.48489679999999996     
 chl2c           6  0.29222855000000003        3.1261039902252048E-002  0.29222855000000003        0.0000000000000000        5.2615942774808977E-008
 chl           6   4.7145067192967126E-023   1.6132943613129902E-022  0.29222855000000003     
 chl2c           7  0.22770740000000000        4.3064391842467263E-002  0.22770740000000000        0.0000000000000000        1.7714603285362715E-019
 chl           7   3.6735906444924157E-023   1.6132943613129902E-022  0.22770740000000000     
 chl2c           8  0.49578364999999996        4.7969800906495587E-002  0.49578364999999996        0.0000000000000000        1.6882222265050070E-009
 chl           8   7.9984496697617297E-023   1.6132943613129902E-022  0.49578364999999996     
 chl2c           9  0.28700202499999999        2.4803669054600401E-002  0.28700202499999999        0.0000000000000000        4.2563992078243437E-007
 chl           9   4.6301874861790982E-023   1.6132943613129902E-022  0.28700202499999999     
 chl2c          10  0.39094662499999999        2.5387016219684602E-002  0.39094662499999999        0.0000000000000000        5.3736417148036292E-016
 chl          10   6.3071198568684406E-023   1.6132943613129902E-022  0.39094662499999999     
 chl2c          11  0.49737575000000001        2.1820572217820047E-002  0.49737575000000001        0.0000000000000000        5.3790298222635380E-016
 chl          11   8.0241349292881945E-023   1.6132943613129902E-022  0.49737575000000001     
 chl2c          12  0.30768942500000002        4.5290941298723353E-002  0.30768942500000002        0.0000000000000000        1.4623268714420057E-009
 chl          12   4.9639361438813620E-023   1.6132943613129902E-022  0.30768942500000002     
 chl2c          13  0.75666275000000005        3.7935816987997487E-002  0.75666275000000005        0.0000000000000000        1.0344138855565248E-005
 chl          13   1.1409395689299322E-020   1.5078574555572242E-020  0.75666275000000005     
 chl2c          14  0.39804095000000000        4.6856526101924839E-002  0.39804095000000000        0.0000000000000000        3.0091413633658802E-018
 chl          14   6.4215722020666589E-023   1.6132943613129902E-022  0.39804095000000000     
 chl2c          15  0.25607262500000000        2.0954299823745293E-002  0.25607262500000000        0.0000000000000000        5.3942828452882816E-016
 chl          15   4.1312052199911582E-023   1.6132943613129902E-022  0.25607262500000000     
 chl2c          16  0.71433214999999994        3.7823443882273475E-002  0.71433214999999994        0.0000000000000000        1.0670170365337458E-005
 chl          16   1.0771110581218356E-020   1.5078574555573843E-020  0.71433214999999994     
 chl2c          17  0.62580860000000005        3.7542254757581245E-002  0.62580860000000005        0.0000000000000000        8.1690767031783070E-016
 chl          17   9.4363016326192897E-021   1.5078574555573843E-020  0.62580860000000005     
 chl2c          18  0.47925950000000000        2.5694475239060960E-002  0.47925950000000000        0.0000000000000000        5.3854830335810825E-016
 chl          18   7.7318664895568299E-023   1.6132943613129902E-022  0.47925950000000000     
 chl2c          19  0.63367130000000005        3.7570220750293731E-002  0.63367130000000005        0.0000000000000000        7.8627629656166482E-006
 chl          19   9.5548599407774005E-021   1.5078574555573843E-020  0.63367130000000005     
 chl2c          20  0.50678202500000002        3.7020645196759419E-002  0.50678202500000002        0.0000000000000000        8.6645530521770328E-006
 chl          20   7.6415505473863765E-021   1.5078574555572242E-020  0.50678202500000002     
 chl2c          21  0.71973185000000006        3.7838475073783531E-002  0.71973185000000006        0.0000000000000000        1.1498653273969859E-005
 chl          21   1.0852530360244938E-020   1.5078574555572242E-020  0.71973185000000006     
 chl2c          22  0.64616892500000001        3.7613353106285476E-002  0.64616892500000001        0.0000000000000000        8.1690767031783070E-016
 chl          22   9.7433063111075028E-021   1.5078574555573843E-020  0.64616892500000001     
 chl2c          23  0.41564179999999995        3.2286562315070731E-002  0.41564179999999995        0.0000000000000000        3.5492166904002034E-009
 chl          23   6.7055257226598155E-023   1.6132943613129902E-022  0.41564179999999995     
 chl2c          24  0.57597492500000003        3.7348402796863071E-002  0.57597492500000003        0.0000000000000000        9.1113670809873325E-016
 chl          24   8.6848808487526304E-021   1.5078574555572242E-020  0.57597492500000003     
 chl2c          25  0.31406487500000002        4.5426679235459781E-002  0.31406487500000002        0.0000000000000000        2.7006156577540887E-009
 chl          25   5.0667909192396915E-023   1.6132943613129902E-022  0.31406487500000002     
 chl2c          26  0.49427735000000000        4.7955660680174553E-002  0.49427735000000000        0.0000000000000000        1.7912954627259653E-019
 chl          26   7.9741486167972731E-023   1.6132943613129902E-022  0.49427735000000000     
 chl2c          27  0.30964730000000001        4.5333133499525620E-002  0.30964730000000001        0.0000000000000000        2.9830809037504519E-018
 chl          27   4.9955224308579189E-023   1.6132943613129902E-022  0.30964730000000001     
 chl2c          28  0.28776342500000002        3.1209236063453518E-002  0.28776342500000002        0.0000000000000000        2.9645323262073453E-018
 chl          28   4.6424711094461357E-023   1.6132943613129902E-022  0.28776342500000002     
 chl2c          29  0.68676297499999994        3.7743217595736761E-002  0.68676297499999994        0.0000000000000000        9.1972862978762968E-016
 chl          29   1.0355406720544095E-020   1.5078574555572242E-020  0.68676297499999994     
 chl2c          30  0.38930277499999999        2.5380056985171612E-002  0.38930277499999999        0.0000000000000000        5.3984653608309993E-016
 chl          30   6.2805997175099968E-023   1.6132943613129902E-022  0.38930277499999999     
 chl2c          31  0.63559385000000002        3.7576959810037038E-002  0.63559385000000002        0.0000000000000000        9.2291915531626614E-016
 chl          31   9.5838492542882010E-021   1.5078574555572242E-020  0.63559385000000002     
 chl2c          32  0.24722667500000001        2.0893126428578448E-002  0.24722667500000001        0.0000000000000000        5.4006159737264033E-016
 chl          32   3.9884940074365924E-023   1.6132943613129902E-022  0.24722667500000001     
 chl2c          33  0.60343137499999999        3.7458922634011876E-002  0.60343137499999999        0.0000000000000000        7.7239786372168476E-006
 chl          33   9.0988849771089713E-021   1.5078574555572242E-020  0.60343137499999999     
 chl2c          34  0.38241020000000003        2.5350269098008315E-002  0.38241020000000003        0.0000000000000000        5.3352979796909224E-016
 chl          34   6.1694021936857293E-023   1.6132943613129902E-022  0.38241020000000003     
 chl2c          35  0.49574644999999995        2.5740370148566064E-002  0.49574644999999995        0.0000000000000000        5.3470236908672445E-016
 chl          35   7.9978495242593216E-023   1.6132943613129902E-022  0.49574644999999995     
 chl2c          36  0.69587337500000002        3.7770393924465726E-002  0.69587337500000002        0.0000000000000000        8.1690767031783070E-016
 chl          36   1.0492778566176295E-020   1.5078574555573843E-020  0.69587337500000002     
 chl2c          37  0.33194060000000003        2.1353674699533250E-002  0.33194060000000003        0.0000000000000000        5.3302204253547977E-016
 chl          37   5.3551789827085077E-023   1.6132943613129902E-022  0.33194060000000003     
 chl2c          38  0.38455722500000000        2.1543295686358745E-002  0.38455722500000000        0.0000000000000000        5.4012183941509884E-016
 chl          38   6.2040400269467085E-023   1.6132943613129902E-022  0.38455722500000000     
 chl2c          39  0.47091117500000002        2.5670077108751441E-002  0.47091117500000002        0.0000000000000000        5.3693080599621564E-016
 chl          39   7.5971834330677481E-023   1.6132943613129902E-022  0.47091117500000002     
 chl2c          40  0.66875547499999999        3.7687445774703773E-002  0.66875547499999999        0.0000000000000000        1.0663609175199758E-005
 chl          40   1.0083879289235699E-020   1.5078574555573843E-020  0.66875547499999999     
 chl2c          41  0.44304987499999998        2.5582381488167241E-002  0.44304987499999998        0.0000000000000000        7.2846052023509060E-006
 chl          41   7.1476986511792509E-023   1.6132943613129902E-022  0.44304987499999998     
 chl2c          42  0.76234377499999995        3.7949995630725070E-002  0.76234377499999995        0.0000000000000000        1.2278020822360817E-005
 chl          42   1.1495057448313889E-020   1.5078574555572242E-020  0.76234377499999995     
 chl2c          43  0.29539925000000000        2.1185090152268007E-002  0.29539925000000000        0.0000000000000000        6.0498366220297979E-006
 chl          43   4.7656594436108632E-023   1.6132943613129902E-022  0.29539925000000000     
 chl2c          44  0.62417262500000004        3.7536352708156646E-002  0.62417262500000004        0.0000000000000000        7.6861302127041180E-006
 chl          44   9.4116334616097350E-021   1.5078574555572242E-020  0.62417262500000004     
 chl2c          45  0.37662252499999999        4.6544927192009838E-002  0.37662252499999999        0.0000000000000000        2.3858107670286434E-019
 chl          45   6.0760299592596071E-023   1.6132943613129902E-022  0.37662252499999999     
 chl2c          46  0.51876034999999998        3.7083195475449568E-002  0.51876034999999998        0.0000000000000000        9.2287987688564572E-016
 chl          46   7.8221666139497500E-021   1.5078574555572242E-020  0.51876034999999998     
 chl2c          47  0.61962282499999999        3.7519784612651236E-002  0.61962282499999999        0.0000000000000000        9.2351269181778441E-016
 chl          47   9.3430289630967923E-021   1.5078574555572242E-020  0.61962282499999999     
 chl2c          48  0.71424949999999998        3.7823212136301673E-002  0.71424949999999998        0.0000000000000000        1.1546478052636279E-005
 chl          48   1.0769864337030195E-020   1.5078574555572242E-020  0.71424949999999998     
 chl2c          49  0.53276120000000005        3.7152990741888416E-002  0.53276120000000005        0.0000000000000000        9.1847930185077242E-016
 chl          49   8.0332794745161348E-021   1.5078574555572242E-020  0.53276120000000005     
 chl2c          50  0.38132569999999999        2.1533072915600981E-002  0.38132569999999999        0.0000000000000000        5.3583236849527774E-016
 chl          50   6.1519060163372883E-023   1.6132943613129902E-022  0.38132569999999999     
 chl2c          51  0.22275920000000002        2.0700971146093840E-002  0.22275920000000002        0.0000000000000000        5.4090851282211451E-016
 chl          51   3.5937616129059268E-023   1.6132943613129902E-022  0.22275920000000002     
 chl2c          52  0.63698869999999996        3.7581825176985564E-002  0.63698869999999996        0.0000000000000000        9.9354904354351159E-006
 chl          52   9.6048816040080588E-021   1.5078574555573843E-020  0.63698869999999996     
 chl2c          53  0.75269794999999995        3.7925801262726190E-002  0.75269794999999995        0.0000000000000000        1.1037382038676059E-005
 chl          53   1.1349612156902592E-020   1.5078574555573843E-020  0.75269794999999995     
 chl2c          54  0.51861124999999997        3.7082433371327092E-002  0.51861124999999997        0.0000000000000000        9.1162998083440578E-016
 chl          54   7.8199183984835152E-021   1.5078574555572242E-020  0.51861124999999997     
 chl2c          55  0.57808280000000001        3.7357235588660491E-002  0.57808280000000001        0.0000000000000000        9.2509714467512293E-016
 chl          55   8.7166645990939572E-021   1.5078574555572242E-020  0.57808280000000001     
 chl2c          56  0.61626080000000005        3.7507394187257688E-002  0.61626080000000005        0.0000000000000000        8.1690767031783070E-016
 chl          56   9.2923344184775820E-021   1.5078574555573843E-020  0.61626080000000005     
 chl2c          57  0.68163462500000005        3.7727617852646313E-002  0.68163462500000005        0.0000000000000000        9.2579497054096540E-016
 chl          57   1.0278078512722028E-020   1.5078574555572242E-020  0.68163462500000005     
 chl2c          58  0.69416802499999997        3.7765358178394853E-002  0.69416802499999997        0.0000000000000000        9.1534291257021208E-006
 chl          58   1.0467064319057947E-020   1.5078574555573843E-020  0.69416802499999997     
 chl2c          59  0.53705127500000005        3.7173699120809672E-002  0.53705127500000005        0.0000000000000000        1.2712205352878426E-005
 chl          59   8.0979676902526317E-021   1.5078574555572242E-020  0.53705127500000005     
 chl2c          60  0.64452155000000000        3.7607757740906807E-002  0.64452155000000000        0.0000000000000000        1.1065541138361814E-005
 chl          60   9.7184662443479830E-021   1.5078574555572242E-020  0.64452155000000000     
 chl2c          61  0.70794139999999994        3.7805373434125003E-002  0.70794139999999994        0.0000000000000000        9.2041315008977723E-016
 chl          61   1.0674747180876189E-020   1.5078574555572242E-020  0.70794139999999994     
 chl2c          62  0.76481592499999995        3.7956103087269030E-002  0.76481592499999995        0.0000000000000000        1.1499550861341669E-005
 chl          62   1.1532333946401448E-020   1.5078574555572242E-020  0.76481592499999995     
 chl2c          63  0.72597904999999996        3.7855601011927406E-002  0.72597904999999996        0.0000000000000000        4.7560948162028008E-006
 chl          63   1.0946729231209670E-020   1.5078574555573843E-020  0.72597904999999996     
 chl2c          64  0.48435739999999999        2.5708982294816416E-002  0.48435739999999999        0.0000000000000000        5.3023271679937224E-016
 chl          64   7.8141106228022047E-023   1.6132943613129902E-022  0.48435739999999999     
 chl2c          65  0.76379975000000000        3.7953597170552002E-002  0.76379975000000000        0.0000000000000000        1.1204622736363708E-005
 chl          65   1.1517011475903663E-020   1.5078574555573843E-020  0.76379975000000000     
 chl2c          66  0.35213202499999996        3.1840477731474713E-002  0.35213202499999996        0.0000000000000000        1.9620304565496625E-019
 chl          66   5.6809261037022478E-023   1.6132943613129902E-022  0.35213202499999996     
 chl2c          67  0.75736760000000003        3.7937587124568600E-002  0.75736760000000003        0.0000000000000000        9.1820677181477449E-016
 chl          67   1.1420023822574816E-020   1.5078574555572242E-020  0.75736760000000003     
 chl2c          68  0.72590779999999999        3.7855407263856986E-002  0.72590779999999999        0.0000000000000000        9.8025272288926430E-006
 chl          68   1.0945654882772585E-020   1.5078574555573843E-020  0.72590779999999999     
 chl2c          69  0.45524217500000003        2.1732330561541505E-002  0.45524217500000003        0.0000000000000000        5.3409853406992659E-016
 chl          69   7.3443963395936154E-023   1.6132943613129902E-022  0.45524217500000003     
 chl2c          70  0.48694062500000002        3.2658010878182209E-002  0.48694062500000002        0.0000000000000000        3.6657116544714632E-018
 chl          70   7.8557856460672324E-023   1.6132943613129902E-022  0.48694062500000002     
 chl2c          71  0.23986107500000001        4.3481058864416305E-002  0.23986107500000001        0.0000000000000000        2.9786710851345490E-009
 chl          71   3.8696651979597223E-023   1.6132943613129902E-022  0.23986107500000001     
 chl2c          72  0.62790522500000001        3.7549776402781669E-002  0.62790522500000001        0.0000000000000000        9.2212835724911472E-006
 chl          72   9.4679157489968684E-021   1.5078574555573843E-020  0.62790522500000001     
 chl2c          73  0.35362212500000001        3.1852614277819484E-002  0.35362212500000001        0.0000000000000000        2.4640245735327844E-019
 chl          73   5.7049658029801743E-023   1.6132943613129902E-022  0.35362212500000001     
 chl2c          74  0.64719590000000005        3.7616827685877569E-002  0.64719590000000005        0.0000000000000000        1.1274351699441730E-005
 chl          74   9.7587916302106785E-021   1.5078574555572242E-020  0.64719590000000005     
 chl2c          75  0.71554212500000003        3.7826830779512356E-002  0.71554212500000003        0.0000000000000000        8.1690767031783070E-016
 chl          75   1.0789355279466239E-020   1.5078574555573843E-020  0.71554212500000003     
 chl2c          76  0.55513977500000000        3.7257729557919804E-002  0.55513977500000000        0.0000000000000000        8.1690767031783070E-016
 chl          76   8.3707164861019887E-021   1.5078574555573843E-020  0.55513977500000000     
 chl2c          77  0.52973029999999999        3.7138172437479272E-002  0.52973029999999999        0.0000000000000000        1.2072767369200615E-005
 chl          77   7.9875778228956496E-021   1.5078574555572242E-020  0.52973029999999999     
 chl2c          78  0.45117492500000000        4.7515248899399322E-002  0.45117492500000000        0.0000000000000000        3.7840079092458800E-018
 chl          78   7.2787796246831124E-023   1.6132943613129902E-022  0.45117492500000000     
 prod   8.9058659447160949E-010   0.0000000000000000        10.000000000000000     
 dcdom   1.2592455982970865E-012  -9.9534393963877274E-013
 chl2c           1  0.60826437499999997        3.7477407714772232E-002  0.60826437499999997        0.0000000000000000        1.0666624503269187E-005
 chl           1   3.7447038653862275E-025   6.1563754500437867E-025  0.60826437499999997     
 chl2c           2  0.48302390000000001        3.2640259920490348E-002  0.48302390000000001        0.0000000000000000        1.7329150238027199E-019
 chl           2   5.6812451035582772E-026   1.1761830219080831E-025  0.48302390000000001     
 chl2c           3  0.75128689999999998        3.7922212503796585E-002  0.75128689999999998        0.0000000000000000        8.5758733082715605E-016
 chl           3   4.6252042270995014E-025   6.1563754500437867E-025  0.75128689999999998     
 chl2c           4  0.77318742499999993        3.7976509103863923E-002  0.77318742499999993        0.0000000000000000        7.5647564508117587E-007
 chl           4   4.7600320815525715E-025   6.1563754500437867E-025  0.77318742499999993     
 chl2c           5  0.48489679999999996        2.5710500362372445E-002  0.48489679999999996        0.0000000000000000        5.3790862516406783E-016
 chl           5   5.7032738353755933E-026   1.1761830219080831E-025  0.48489679999999996     
 chl2c           6  0.29222855000000003        3.1261039902252048E-002  0.29222855000000003        0.0000000000000000        4.7272171860120744E-008
 chl           6   3.4371425902681737E-026   1.1761830219080831E-025  0.29222855000000003     
 chl2c           7  0.22770740000000000        4.3064391842467263E-002  0.22770740000000000        0.0000000000000000        1.6909648169741375E-019
 chl           7   2.6782557784283266E-026   1.1761830219080831E-025  0.22770740000000000     
 chl2c           8  0.49578364999999996        4.7969800906495587E-002  0.49578364999999996        0.0000000000000000        4.1137165369381644E-010
 chl           8   5.8313231166961931E-026   1.1761830219080831E-025  0.49578364999999996     
 chl2c           9  0.28700202499999999        2.4803669054600401E-002  0.28700202499999999        0.0000000000000000        5.4052136370965825E-016
 chl           9   3.3756690905823919E-026   1.1761830219080831E-025  0.28700202499999999     
 chl2c          10  0.39094662499999999        2.5387016219684602E-002  0.39094662499999999        0.0000000000000000        5.4053043441909540E-016
 chl          10   4.5982478279726616E-026   1.1761830219080831E-025  0.39094662499999999     
 chl2c          11  0.49737575000000001        2.1820572217820047E-002  0.49737575000000001        0.0000000000000000        5.4094884725629637E-016
 chl          11   5.8500491265879925E-026   1.1761830219080831E-025  0.49737575000000001     
 chl2c          12  0.30768942500000002        4.5290941298723353E-002  0.30768942500000002        0.0000000000000000        2.0303478202793425E-009
 chl          12   3.6189907770566053E-026   1.1761830219080831E-025  0.30768942500000002     
 chl2c          13  0.75666275000000005        3.7935816987997487E-002  0.75666275000000005        0.0000000000000000        1.1337238060274217E-005
 chl          13   4.6582999780623592E-025   6.1563754500434423E-025  0.75666275000000005     
 chl2c          14  0.39804095000000000        4.6856526101924839E-002  0.39804095000000000        0.0000000000000000        2.8210983193983930E-018
 chl          14   4.6816900741416420E-026   1.1761830219080831E-025  0.39804095000000000     
 chl2c          15  0.25607262500000000        2.0954299823745293E-002  0.25607262500000000        0.0000000000000000        5.4213272780276047E-016
 chl          15   3.0118827390043534E-026   1.1761830219080831E-025  0.25607262500000000     
 chl2c          16  0.71433214999999994        3.7823443882273475E-002  0.71433214999999994        0.0000000000000000        1.0906870326905410E-005
 chl          16   4.3976969114369956E-025   6.1563754500437867E-025  0.71433214999999994     
 chl2c          17  0.62580860000000005        3.7542254757581245E-002  0.62580860000000005        0.0000000000000000        8.5758733082715605E-016
 chl          17   3.8527127014662722E-025   6.1563754500437867E-025  0.62580860000000005     
 chl2c          18  0.47925950000000000        2.5694475239060960E-002  0.47925950000000000        0.0000000000000000        5.4144981966474722E-016
 chl          18   5.6369688698815695E-026   1.1761830219080831E-025  0.47925950000000000     
 chl2c          19  0.63367130000000005        3.7570220750293731E-002  0.63367130000000005        0.0000000000000000        3.9966233273556120E-006
 chl          19   3.9011184347173316E-025   6.1563754500437867E-025  0.63367130000000005     
 chl2c          20  0.50678202500000002        3.7020645196759419E-002  0.50678202500000002        0.0000000000000000        1.0659154002351979E-005
 chl          20   3.1199404172333024E-025   6.1563754500434423E-025  0.50678202500000002     
 chl2c          21  0.71973185000000006        3.7838475073783531E-002  0.71973185000000006        0.0000000000000000        8.4737398508362098E-006
 chl          21   4.4309394919543493E-025   6.1563754500434423E-025  0.71973185000000006     
 chl2c          22  0.64616892500000001        3.7613353106285476E-002  0.64616892500000001        0.0000000000000000        8.5758733082715605E-016
 chl          22   3.9780585064511848E-025   6.1563754500437867E-025  0.64616892500000001     
 chl2c          23  0.41564179999999995        3.2286562315070731E-002  0.41564179999999995        0.0000000000000000        3.1619637084081537E-009
 chl          23   4.8887082835531506E-026   1.1761830219080831E-025  0.41564179999999995     
 chl2c          24  0.57597492500000003        3.7348402796863071E-002  0.57597492500000003        0.0000000000000000        9.2307375011899508E-016
 chl          24   3.5459178881106130E-025   6.1563754500434423E-025  0.57597492500000003     
 chl2c          25  0.31406487500000002        4.5426679235459781E-002  0.31406487500000002        0.0000000000000000        2.4085530482711959E-009
 chl          25   3.6939777375268441E-026   1.1761830219080831E-025  0.31406487500000002     
 chl2c          26  0.49427735000000000        4.7955660680174553E-002  0.49427735000000000        0.0000000000000000        1.7098989184166237E-019
 chl          26   5.8136062718371925E-026   1.1761830219080831E-025  0.49427735000000000     
 chl2c          27  0.30964730000000001        4.5333133499525620E-002  0.30964730000000001        0.0000000000000000        2.7966588366454863E-018
 chl          27   3.6420189703967880E-026   1.1761830219080831E-025  0.30964730000000001     
 chl2c          28  0.28776342500000002        3.1209236063453518E-002  0.28776342500000002        0.0000000000000000        2.7792640726263091E-018
 chl          28   3.3846245481112003E-026   1.1761830219080831E-025  0.28776342500000002     
 chl2c          29  0.68676297499999994        3.7743217595736761E-002  0.68676297499999994        0.0000000000000000        9.2981794045364764E-016
 chl          29   4.2279707192887984E-025   6.1563754500434423E-025  0.68676297499999994     
 chl2c          30  0.38930277499999999        2.5380056985171612E-002  0.38930277499999999        0.0000000000000000        5.4245723066187269E-016
 chl          30   4.5789131433670252E-026   1.1761830219080831E-025  0.38930277499999999     
 chl2c          31  0.63559385000000002        3.7576959810037038E-002  0.63559385000000002        0.0000000000000000        9.3231546706783691E-016
 chl          31   3.9129543743385942E-025   6.1563754500434423E-025  0.63559385000000002     
 chl2c          32  0.24722667500000001        2.0893126428578448E-002  0.24722667500000001        0.0000000000000000        5.4262407022443121E-016
 chl          32   2.9078381769778755E-026   1.1761830219080831E-025  0.24722667500000001     
 chl2c          33  0.60343137499999999        3.7458922634011876E-002  0.60343137499999999        0.0000000000000000        3.0683210080257137E-006
 chl          33   3.7149501028359582E-025   6.1563754500434423E-025  0.60343137499999999     
 chl2c          34  0.38241020000000003        2.5350269098008315E-002  0.38241020000000003        0.0000000000000000        5.3754890919043497E-016
 chl          34   4.4978438464447449E-026   1.1761830219080831E-025  0.38241020000000003     
 chl2c          35  0.49574644999999995        2.5740370148566064E-002  0.49574644999999995        0.0000000000000000        5.3846146817031238E-016
 chl          35   5.8308855766120441E-026   1.1761830219080831E-025  0.49574644999999995     
 chl2c          36  0.69587337500000002        3.7770393924465726E-002  0.69587337500000002        0.0000000000000000        8.5758733082715605E-016
 chl          36   4.2840577621891140E-025   6.1563754500437867E-025  0.69587337500000002     
 chl2c          37  0.33194060000000003        2.1353674699533250E-002  0.33194060000000003        0.0000000000000000        5.3715351314806661E-016
 chl          37   3.9042289800198226E-026   1.1761830219080831E-025  0.33194060000000003     
 chl2c          38  0.38455722500000000        2.1543295686358745E-002  0.38455722500000000        0.0000000000000000        5.4267080274477866E-016
 chl          38   4.5230967899708666E-026   1.1761830219080831E-025  0.38455722500000000     
 chl2c          39  0.47091117500000002        2.5670077108751441E-002  0.47091117500000002        0.0000000000000000        5.4019381544650347E-016
 chl          39   5.5387772886178615E-026   1.1761830219080831E-025  0.47091117500000002     
 chl2c          40  0.66875547499999999        3.7687445774703773E-002  0.66875547499999999        0.0000000000000000        1.0905635231115625E-005
 chl          40   4.1171097883723712E-025   6.1563754500437867E-025  0.66875547499999999     
 chl2c          41  0.44304987499999998        2.5582381488167241E-002  0.44304987499999998        0.0000000000000000        6.8320628122848076E-006
 chl          41   5.2110774083349843E-026   1.1761830219080831E-025  0.44304987499999998     
 chl2c          42  0.76234377499999995        3.7949995630725070E-002  0.76234377499999995        0.0000000000000000        1.1865008649186768E-005
 chl          42   4.6932745009034410E-025   6.1563754500434423E-025  0.76234377499999995     
 chl2c          43  0.29539925000000000        2.1185090152268007E-002  0.29539925000000000        0.0000000000000000        2.8439138228078572E-006
 chl          43   3.4744358253438131E-026   1.1761830219080831E-025  0.29539925000000000     
 chl2c          44  0.62417262500000004        3.7536352708156646E-002  0.62417262500000004        0.0000000000000000        1.0127321733142665E-005
 chl          44   3.8426410251391722E-025   6.1563754500434423E-025  0.62417262500000004     
 chl2c          45  0.37662252499999999        4.6544927192009838E-002  0.37662252499999999        0.0000000000000000        2.2774105877505454E-019
 chl          45   4.4297701957315255E-026   1.1761830219080831E-025  0.37662252499999999     
 chl2c          46  0.51876034999999998        3.7083195475449568E-002  0.51876034999999998        0.0000000000000000        9.3228474230644407E-016
 chl          46   3.1936834831959434E-025   6.1563754500434423E-025  0.51876034999999998     
 chl2c          47  0.61962282499999999        3.7519784612651236E-002  0.61962282499999999        0.0000000000000000        1.2197689587192832E-006
 chl          47   3.8146307481165642E-025   6.1563754500434423E-025  0.61962282499999999     
 chl2c          48  0.71424949999999998        3.7823212136301673E-002  0.71424949999999998        0.0000000000000000        1.1738052057890037E-005
 chl          48   4.3971880870058039E-025   6.1563754500434423E-025  0.71424949999999998     
 chl2c          49  0.53276120000000005        3.7152990741888416E-002  0.53276120000000005        0.0000000000000000        1.6413349665275845E-006
 chl          49   3.2798779724156846E-025   6.1563754500434423E-025  0.53276120000000005     
 chl2c          50  0.38132569999999999        2.1533072915600981E-002  0.38132569999999999        0.0000000000000000        5.3934021386337160E-016
 chl          50   4.4850881415721510E-026   1.1761830219080831E-025  0.38132569999999999     
 chl2c          51  0.22275920000000002        2.0700971146093840E-002  0.22275920000000002        0.0000000000000000        5.4328100116842847E-016
 chl          51   2.6200558901382707E-026   1.1761830219080831E-025  0.22275920000000002     
 chl2c          52  0.63698869999999996        3.7581825176985564E-002  0.63698869999999996        0.0000000000000000        1.0723822477702344E-005
 chl          52   3.9215415946353063E-025   6.1563754500437867E-025  0.63698869999999996     
 chl2c          53  0.75269794999999995        3.7925801262726190E-002  0.75269794999999995        0.0000000000000000        1.0957802094963949E-005
 chl          53   4.6338911806782854E-025   6.1563754500437867E-025  0.75269794999999995     
 chl2c          54  0.51861124999999997        3.7082433371327092E-002  0.51861124999999997        0.0000000000000000        1.9474247397249516E-006
 chl          54   3.1927655676163421E-025   6.1563754500434423E-025  0.51861124999999997     
 chl2c          55  0.57808280000000001        3.7357235588660491E-002  0.57808280000000001        0.0000000000000000        9.3401829907962163E-016
 chl          55   3.5588947580123734E-025   6.1563754500434423E-025  0.57808280000000001     
 chl2c          56  0.61626080000000005        3.7507394187257688E-002  0.61626080000000005        0.0000000000000000        8.5758733082715605E-016
 chl          56   3.7939328599443445E-025   6.1563754500437867E-025  0.61626080000000005     
 chl2c          57  0.68163462500000005        3.7727617852646313E-002  0.68163462500000005        0.0000000000000000        9.3456353150020666E-016
 chl          57   4.1963986712495687E-025   6.1563754500434423E-025  0.68163462500000005     
 chl2c          58  0.69416802499999997        3.7765358178394853E-002  0.69416802499999997        0.0000000000000000        5.8574794481644076E-006
 chl          58   4.2735589873153816E-025   6.1563754500437867E-025  0.69416802499999997     
 chl2c          59  0.53705127500000005        3.7173699120809672E-002  0.53705127500000005        0.0000000000000000        1.1751336592707873E-005
 chl          59   3.3062892848245296E-025   6.1563754500434423E-025  0.53705127500000005     
 chl2c          60  0.64452155000000000        3.7607757740906807E-002  0.64452155000000000        0.0000000000000000        7.7745274485210831E-006
 chl          60   3.9679166474439472E-025   6.1563754500434423E-025  0.64452155000000000     
 chl2c          61  0.70794139999999994        3.7805373434125003E-002  0.70794139999999994        0.0000000000000000        9.3035408823444614E-016
 chl          61   4.3583530550293847E-025   6.1563754500434423E-025  0.70794139999999994     
 chl2c          62  0.76481592499999995        3.7956103087269030E-002  0.76481592499999995        0.0000000000000000        1.1647496477237855E-005
 chl          62   4.7084939844722659E-025   6.1563754500434423E-025  0.76481592499999995     
 chl2c          63  0.72597904999999996        3.7855601011927406E-002  0.72597904999999996        0.0000000000000000        7.5737924564044207E-007
 chl          63   4.4693996006661105E-025   6.1563754500437867E-025  0.72597904999999996     
 chl2c          64  0.48435739999999999        2.5708982294816416E-002  0.48435739999999999        0.0000000000000000        5.3497879474513096E-016
 chl          64   5.6969295041554215E-026   1.1761830219080831E-025  0.48435739999999999     
 chl2c          65  0.76379975000000000        3.7953597170552002E-002  0.76379975000000000        0.0000000000000000        1.0787915114869602E-005
 chl          65   4.7022380296495817E-025   6.1563754500437867E-025  0.76379975000000000     
 chl2c          66  0.35213202499999996        3.1840477731474713E-002  0.35213202499999996        0.0000000000000000        1.8728783438525857E-019
 chl          66   4.1417170927511259E-026   1.1761830219080831E-025  0.35213202499999996     
 chl2c          67  0.75736760000000003        3.7937587124568600E-002  0.75736760000000003        0.0000000000000000        1.8598376733029396E-006
 chl          67   4.6626392992983221E-025   6.1563754500434423E-025  0.75736760000000003     
 chl2c          68  0.72590779999999999        3.7855407263856986E-002  0.72590779999999999        0.0000000000000000        6.9820488621166803E-006
 chl          68   4.4689609589152951E-025   6.1563754500437867E-025  0.72590779999999999     
 chl2c          69  0.45524217500000003        2.1732330561541505E-002  0.45524217500000003        0.0000000000000000        5.3799162319433978E-016
 chl          69   5.3544811709150839E-026   1.1761830219080831E-025  0.45524217500000003     
 chl2c          70  0.48694062500000002        3.2658010878182209E-002  0.48694062500000002        0.0000000000000000        3.4368730860881909E-018
 chl          70   5.7273129580231074E-026   1.1761830219080831E-025  0.48694062500000002     
 chl2c          71  0.23986107500000001        4.3481058864416305E-002  0.23986107500000001        0.0000000000000000        2.3490452464004504E-009
 chl          71   2.8212052403162138E-026   1.1761830219080831E-025  0.23986107500000001     
 chl2c          72  0.62790522500000001        3.7549776402781669E-002  0.62790522500000001        0.0000000000000000        1.0483382942587109E-005
 chl          72   3.8656203121442201E-025   6.1563754500437867E-025  0.62790522500000001     
 chl2c          73  0.35362212500000001        3.1852614277819484E-002  0.35362212500000001        0.0000000000000000        2.3520722387529339E-019
 chl          73   4.1592433959605789E-026   1.1761830219080831E-025  0.35362212500000001     
 chl2c          74  0.64719590000000005        3.7616827685877569E-002  0.64719590000000005        0.0000000000000000        8.0063316781163576E-006
 chl          74   3.9843809501287712E-025   6.1563754500434423E-025  0.64719590000000005     
 chl2c          75  0.71554212500000003        3.7826830779512356E-002  0.71554212500000003        0.0000000000000000        8.5758733082715605E-016
 chl          75   4.4051459718221624E-025   6.1563754500437867E-025  0.71554212500000003     
 chl2c          76  0.55513977500000000        3.7257729557919804E-002  0.55513977500000000        0.0000000000000000        8.5758733082715605E-016
 chl          76   3.4176488821528315E-025   6.1563754500437867E-025  0.55513977500000000     
 chl2c          77  0.52973029999999999        3.7138172437479272E-002  0.52973029999999999        0.0000000000000000        1.0036149582298967E-005
 chl          77   3.2612186140641474E-025   6.1563754500434423E-025  0.52973029999999999     
 chl2c          78  0.45117492500000000        4.7515248899399322E-002  0.45117492500000000        0.0000000000000000        3.5478279957518799E-018
 chl          78   5.3066428669565278E-026   1.1761830219080831E-025  0.45117492500000000     
 prod   8.5010574165490894E-010   0.0000000000000000        10.000000000000000     
 dcdom   1.2494292394325639E-012  -5.6411351062718866E-016
 chl2c           1  0.60826437499999997        3.7477407714772232E-002  0.60826437499999997        0.0000000000000000        9.0751790895071557E-006
 chl           1   4.3403742734688291E-021   7.1356706916607266E-021  0.60826437499999997     
 chl2c           2  0.48302390000000001        3.2640259920490348E-002  0.48302390000000001        0.0000000000000000        1.7094870866661317E-019
 chl           2   3.4478199498675947E-021   7.1379903765995735E-021  0.48302390000000001     
 chl2c           3  0.75128689999999998        3.7922212503796585E-002  0.75128689999999998        0.0000000000000000        8.8068949708603075E-016
 chl           3   5.3609359133586427E-021   7.1356706916607266E-021  0.75128689999999998     
 chl2c           4  0.77318742499999993        3.7976509103863923E-002  0.77318742499999993        0.0000000000000000        8.8068949708603075E-016
 chl           4   5.5172108477331254E-021   7.1356706916607266E-021  0.77318742499999993     
 chl2c           5  0.48489679999999996        2.5710500362372445E-002  0.48489679999999996        0.0000000000000000        5.3956938707584391E-016
 chl           5   3.4611886920439281E-021   7.1379903765995735E-021  0.48489679999999996     
 chl2c           6  0.29222855000000003        3.1261039902252048E-002  0.29222855000000003        0.0000000000000000        4.2046462601788838E-008
 chl           6   2.0859245776676474E-021   7.1379903765995735E-021  0.29222855000000003     
 chl2c           7  0.22770740000000000        4.3064391842467263E-002  0.22770740000000000        0.0000000000000000        1.6681038489297080E-019
 chl           7   1.6253732298805097E-021   7.1379903765995735E-021  0.22770740000000000     
 chl2c           8  0.49578364999999996        4.7969800906495587E-002  0.49578364999999996        0.0000000000000000        1.7724456889086944E-019
 chl           8   3.5388989225754112E-021   7.1379903765995735E-021  0.49578364999999996     
 chl2c           9  0.28700202499999999        2.4803669054600401E-002  0.28700202499999999        0.0000000000000000        5.4184060478521480E-016
 chl           9   2.0486176925145904E-021   7.1379903765995735E-021  0.28700202499999999     
 chl2c          10  0.39094662499999999        2.5387016219684602E-002  0.39094662499999999        0.0000000000000000        5.4184846842874369E-016
 chl          10   2.7905732470140822E-021   7.1379903765995735E-021  0.39094662499999999     
 chl2c          11  0.49737575000000001        2.1820572217820047E-002  0.49737575000000001        0.0000000000000000        5.4221100508666288E-016
 chl          11   3.5502633170539957E-021   7.1379903765995735E-021  0.49737575000000001     
 chl2c          12  0.30768942500000002        4.5290941298723353E-002  0.30768942500000002        0.0000000000000000        2.0703713018692356E-009
 chl          12   2.1962841546314564E-021   7.1379903765995735E-021  0.30768942500000002     
 chl2c          13  0.75666275000000005        3.7935816987997487E-002  0.75666275000000005        0.0000000000000000        1.1043109635398029E-005
 chl          13   5.3992962086464066E-021   7.1356706916607251E-021  0.75666275000000005     
 chl2c          14  0.39804095000000000        4.6856526101924839E-002  0.39804095000000000        0.0000000000000000        2.6962269908928191E-018
 chl          14   2.8412124705925519E-021   7.1379903765995735E-021  0.39804095000000000     
 chl2c          15  0.25607262500000000        2.0954299823745293E-002  0.25607262500000000        0.0000000000000000        5.4323440909370941E-016
 chl          15   1.8278439329605914E-021   7.1379903765995735E-021  0.25607262500000000     
 chl2c          16  0.71433214999999994        3.7823443882273475E-002  0.71433214999999994        0.0000000000000000        1.0477517102466683E-005
 chl          16   5.0972389868659938E-021   7.1356706916607266E-021  0.71433214999999994     
 chl2c          17  0.62580860000000005        3.7542254757581245E-002  0.62580860000000005        0.0000000000000000        2.8551421240231802E-006
 chl          17   4.4655640856092313E-021   7.1356706916607266E-021  0.62580860000000005     
 chl2c          18  0.47925950000000000        2.5694475239060960E-002  0.47925950000000000        0.0000000000000000        5.4264453143582324E-016
 chl          18   3.4209496988939232E-021   7.1379903765995735E-021  0.47925950000000000     
 chl2c          19  0.63367130000000005        3.7570220750293731E-002  0.63367130000000005        0.0000000000000000        1.3751697265902547E-007
 chl          19   4.5216697235565518E-021   7.1356706916607266E-021  0.63367130000000005     
 chl2c          20  0.50678202500000002        3.7020645196759419E-002  0.50678202500000002        0.0000000000000000        1.0917109502028924E-005
 chl          20   3.6162296428529727E-021   7.1356706916607251E-021  0.50678202500000002     
 chl2c          21  0.71973185000000006        3.7838475073783531E-002  0.71973185000000006        0.0000000000000000        4.1877202572985620E-006
 chl          21   5.1357694678997534E-021   7.1356706916607251E-021  0.71973185000000006     
 chl2c          22  0.64616892500000001        3.7613353106285476E-002  0.64616892500000001        0.0000000000000000        8.8068949708603075E-016
 chl          22   4.6108486599844180E-021   7.1356706916607266E-021  0.64616892500000001     
 chl2c          23  0.41564179999999995        3.2286562315070731E-002  0.41564179999999995        0.0000000000000000        2.8620306735162610E-009
 chl          23   2.9668471685125241E-021   7.1379903765995735E-021  0.41564179999999995     
 chl2c          24  0.57597492500000003        3.7348402796863071E-002  0.57597492500000003        0.0000000000000000        9.2824344551960458E-016
 chl          24   4.1099673914539848E-021   7.1356706916607251E-021  0.57597492500000003     
 chl2c          25  0.31406487500000002        4.5426679235459781E-002  0.31406487500000002        0.0000000000000000        2.1880932598037722E-009
 chl          25   2.2417920553779480E-021   7.1379903765995735E-021  0.31406487500000002     
 chl2c          26  0.49427735000000000        4.7955660680174553E-002  0.49427735000000000        0.0000000000000000        3.5224216335362861E-010
 chl          26   3.5281469676711394E-021   7.1379903765995735E-021  0.49427735000000000     
 chl2c          27  0.30964730000000001        4.5333133499525620E-002  0.30964730000000001        0.0000000000000000        2.6728642415860219E-018
 chl          27   2.2102594475400413E-021   7.1379903765995735E-021  0.30964730000000001     
 chl2c          28  0.28776342500000002        3.1209236063453518E-002  0.28776342500000002        0.0000000000000000        1.3162527011259318E-008
 chl          28   2.0540525583873334E-021   7.1379903765995735E-021  0.28776342500000002     
 chl2c          29  0.68676297499999994        3.7743217595736761E-002  0.68676297499999994        0.0000000000000000        9.3416870020195923E-016
 chl          29   4.9005144328252268E-021   7.1356706916607251E-021  0.68676297499999994     
 chl2c          30  0.38930277499999999        2.5380056985171612E-002  0.38930277499999999        0.0000000000000000        5.4351420322780422E-016
 chl          30   2.7788394615335090E-021   7.1379903765995735E-021  0.38930277499999999     
 chl2c          31  0.63559385000000002        3.7576959810037038E-002  0.63559385000000002        0.0000000000000000        9.3635861117373090E-016
 chl          31   4.5353884072448035E-021   7.1356706916607251E-021  0.63559385000000002     
 chl2c          32  0.24722667500000001        2.0893126428578448E-002  0.24722667500000001        0.0000000000000000        5.4365791595246910E-016
 chl          32   1.7647016269887106E-021   7.1379903765995735E-021  0.24722667500000001     
 chl2c          33  0.60343137499999999        3.7458922634011876E-002  0.60343137499999999        0.0000000000000000        9.2987444876745379E-016
 chl          33   4.3058875770160321E-021   7.1356706916607251E-021  0.60343137499999999     
 chl2c          34  0.38241020000000003        2.5350269098008315E-002  0.38241020000000003        0.0000000000000000        5.3925588787322731E-016
 chl          34   2.7296403275135185E-021   7.1379903765995735E-021  0.38241020000000003     
 chl2c          35  0.49574644999999995        2.5740370148566064E-002  0.49574644999999995        0.0000000000000000        5.4005086486491458E-016
 chl          35   3.5386333893334014E-021   7.1379903765995735E-021  0.49574644999999995     
 chl2c          36  0.69587337500000002        3.7770393924465726E-002  0.69587337500000002        0.0000000000000000        8.8068949708603075E-016
 chl          36   4.9655232470945340E-021   7.1356706916607266E-021  0.69587337500000002     
 chl2c          37  0.33194060000000003        2.1353674699533250E-002  0.33194060000000003        0.0000000000000000        5.3891110699236940E-016
 chl          37   2.3693888084026887E-021   7.1379903765995735E-021  0.33194060000000003     
 chl2c          38  0.38455722500000000        2.1543295686358745E-002  0.38455722500000000        0.0000000000000000        5.4369815254947339E-016
 chl          38   2.7449657713018370E-021   7.1379903765995735E-021  0.38455722500000000     
 chl2c          39  0.47091117500000002        2.5670077108751441E-002  0.47091117500000002        0.0000000000000000        5.4155652962109877E-016
 chl          39   3.3613594353831978E-021   7.1379903765995735E-021  0.47091117500000002     
 chl2c          40  0.66875547499999999        3.7687445774703773E-002  0.66875547499999999        0.0000000000000000        1.0477500696717428E-005
 chl          40   4.7720188428451476E-021   7.1356706916607266E-021  0.66875547499999999     
 chl2c          41  0.44304987499999998        2.5582381488167241E-002  0.44304987499999998        0.0000000000000000        6.0413273467412749E-006
 chl          41   3.1624857441036440E-021   7.1379903765995735E-021  0.44304987499999998     
 chl2c          42  0.76234377499999995        3.7949995630725070E-002  0.76234377499999995        0.0000000000000000        1.1112917334527893E-005
 chl          42   5.4398341322374976E-021   7.1356706916607251E-021  0.76234377499999995     
 chl2c          43  0.29539925000000000        2.1185090152268007E-002  0.29539925000000000        0.0000000000000000        5.4365999715195944E-016
 chl          43   2.1085570037547314E-021   7.1379903765995735E-021  0.29539925000000000     
 chl2c          44  0.62417262500000004        3.7536352708156646E-002  0.62417262500000004        0.0000000000000000        1.0707342179025211E-005
 chl          44   4.4538903067494405E-021   7.1356706916607251E-021  0.62417262500000004     
 chl2c          45  0.37662252499999999        4.6544927192009838E-002  0.37662252499999999        0.0000000000000000        2.2466244096329167E-019
 chl          45   2.6883279590606322E-021   7.1379903765995735E-021  0.37662252499999999     
 chl2c          46  0.51876034999999998        3.7083195475449568E-002  0.51876034999999998        0.0000000000000000        9.3633168649968933E-016
 chl          46   3.7017030254906597E-021   7.1356706916607251E-021  0.51876034999999998     
 chl2c          47  0.61962282499999999        3.7519784612651236E-002  0.61962282499999999        0.0000000000000000        4.9866739263022083E-006
 chl          47   4.4214244322365222E-021   7.1356706916607251E-021  0.61962282499999999     
 chl2c          48  0.71424949999999998        3.7823212136301673E-002  0.71424949999999998        0.0000000000000000        1.1126347169588616E-005
 chl          48   5.0966492236833269E-021   7.1356706916607251E-021  0.71424949999999998     
 chl2c          49  0.53276120000000005        3.7152990741888416E-002  0.53276120000000005        0.0000000000000000        5.4086790532625011E-006
 chl          49   3.8016084804939984E-021   7.1356706916607251E-021  0.53276120000000005     
 chl2c          50  0.38132569999999999        2.1533072915600981E-002  0.38132569999999999        0.0000000000000000        5.4081525386080443E-016
 chl          50   2.7218991769500959E-021   7.1379903765995735E-021  0.38132569999999999     
 chl2c          51  0.22275920000000002        2.0700971146093840E-002  0.22275920000000002        0.0000000000000000        5.4422274640121792E-016
 chl          51   1.5900530258990198E-021   7.1379903765995735E-021  0.22275920000000002     
 chl2c          52  0.63698869999999996        3.7581825176985564E-002  0.63698869999999996        0.0000000000000000        1.0466344125823899E-005
 chl          52   4.5453415975090671E-021   7.1356706916607266E-021  0.63698869999999996     
 chl2c          53  0.75269794999999995        3.7925801262726190E-002  0.75269794999999995        0.0000000000000000        1.0477594400698317E-005
 chl          53   5.3710047014881109E-021   7.1356706916607266E-021  0.75269794999999995     
 chl2c          54  0.51861124999999997        3.7082433371327092E-002  0.51861124999999997        0.0000000000000000        5.6910432918568973E-006
 chl          54   3.7006390969905329E-021   7.1356706916607251E-021  0.51861124999999997     
 chl2c          55  0.57808280000000001        3.7357235588660491E-002  0.57808280000000001        0.0000000000000000        9.3785018340202952E-016
 chl          55   4.1250084933131689E-021   7.1356706916607251E-021  0.57808280000000001     
 chl2c          56  0.61626080000000005        3.7507394187257688E-002  0.61626080000000005        0.0000000000000000        8.8068949708603075E-016
 chl          56   4.3974341289793931E-021   7.1356706916607266E-021  0.61626080000000005     
 chl2c          57  0.68163462500000005        3.7727617852646313E-002  0.68163462500000005        0.0000000000000000        9.3832749251930921E-016
 chl          57   4.8639202160336495E-021   7.1356706916607251E-021  0.68163462500000005     
 chl2c          58  0.69416802499999997        3.7765358178394853E-002  0.69416802499999997        0.0000000000000000        1.7354291514945505E-006
 chl          58   4.9533544310805104E-021   7.1356706916607266E-021  0.69416802499999997     
 chl2c          59  0.53705127500000005        3.7173699120809672E-002  0.53705127500000005        0.0000000000000000        1.0041426178090518E-005
 chl          59   3.8322210429365249E-021   7.1356706916607251E-021  0.53705127500000005     
 chl2c          60  0.64452155000000000        3.7607757740906807E-002  0.64452155000000000        0.0000000000000000        3.3838195408543579E-006
 chl          60   4.5990935344787427E-021   7.1356706916607251E-021  0.64452155000000000     
 chl2c          61  0.70794139999999994        3.7805373434125003E-002  0.70794139999999994        0.0000000000000000        9.3463902524752869E-016
 chl          61   5.0516366993932619E-021   7.1356706916607251E-021  0.70794139999999994     
 chl2c          62  0.76481592499999995        3.7956103087269030E-002  0.76481592499999995        0.0000000000000000        1.1032584279813192E-005
 chl          62   5.4574745805378870E-021   7.1356706916607251E-021  0.76481592499999995     
 chl2c          63  0.72597904999999996        3.7855601011927406E-002  0.72597904999999996        0.0000000000000000        8.8068949708603075E-016
 chl          63   5.1803474298446972E-021   7.1356706916607266E-021  0.72597904999999996     
 chl2c          64  0.48435739999999999        2.5708982294816416E-002  0.48435739999999999        0.0000000000000000        5.3701171401187471E-016
 chl          64   3.4573384600347905E-021   7.1379903765995735E-021  0.48435739999999999     
 chl2c          65  0.76379975000000000        3.7953597170552002E-002  0.76379975000000000        0.0000000000000000        9.4679885392142221E-006
 chl          65   5.4502234903727897E-021   7.1356706916607266E-021  0.76379975000000000     
 chl2c          66  0.35213202499999996        3.1840477731474713E-002  0.35213202499999996        0.0000000000000000        1.8475588238827223E-019
 chl          66   2.5135150057425202E-021   7.1379903765995735E-021  0.35213202499999996     
 chl2c          67  0.75736760000000003        3.7937587124568600E-002  0.75736760000000003        0.0000000000000000        5.6236680654689942E-006
 chl          67   5.4043257861334239E-021   7.1356706916607251E-021  0.75736760000000003     
 chl2c          68  0.72590779999999999        3.7855407263856986E-002  0.72590779999999999        0.0000000000000000        2.9243906530614291E-006
 chl          68   5.1798390133079165E-021   7.1356706916607266E-021  0.72590779999999999     
 chl2c          69  0.45524217500000003        2.1732330561541505E-002  0.45524217500000003        0.0000000000000000        5.3964169758607973E-016
 chl          69   3.2495142641722590E-021   7.1379903765995735E-021  0.45524217500000003     
 chl2c          70  0.48694062500000002        3.2658010878182209E-002  0.48694062500000002        0.0000000000000000        1.6601475341837040E-008
 chl          70   3.4757774952253816E-021   7.1379903765995735E-021  0.48694062500000002     
 chl2c          71  0.23986107500000001        4.3481058864416305E-002  0.23986107500000001        0.0000000000000000        1.2910460643966991E-009
 chl          71   1.7121260450708286E-021   7.1379903765995735E-021  0.23986107500000001     
 chl2c          72  0.62790522500000001        3.7549776402781669E-002  0.62790522500000001        0.0000000000000000        1.0432868702881684E-005
 chl          72   4.4805249111731339E-021   7.1356706916607266E-021  0.62790522500000001     
 chl2c          73  0.35362212500000001        3.1852614277819484E-002  0.35362212500000001        0.0000000000000000        2.3202772048624886E-019
 chl          73   2.5241513252026915E-021   7.1379903765995735E-021  0.35362212500000001     
 chl2c          74  0.64719590000000005        3.7616827685877569E-002  0.64719590000000005        0.0000000000000000        3.6041237144039007E-006
 chl          74   4.6181768153929858E-021   7.1356706916607251E-021  0.64719590000000005     
 chl2c          75  0.71554212500000003        3.7826830779512356E-002  0.71554212500000003        0.0000000000000000        8.8068949708603075E-016
 chl          75   5.1058729700111366E-021   7.1356706916607266E-021  0.71554212500000003     
 chl2c          76  0.55513977500000000        3.7257729557919804E-002  0.55513977500000000        0.0000000000000000        8.8068949708603075E-016
 chl          76   3.9612946222426304E-021   7.1356706916607266E-021  0.55513977500000000     
 chl2c          77  0.52973029999999999        3.7138172437479272E-002  0.52973029999999999        0.0000000000000000        6.5420816257443558E-006
 chl          77   3.7799809761946437E-021   7.1356706916607251E-021  0.52973029999999999     
 chl2c          78  0.45117492500000000        4.7515248899399322E-002  0.45117492500000000        0.0000000000000000        3.3909792936208184E-018
 chl          78   3.2204822728130345E-021   7.1379903765995735E-021  0.45117492500000000     
 prod   8.3860927303418226E-010   0.0000000000000000        10.000000000000000     
 dcdom   1.2336603968796098E-012  -5.1457410109129001E-016
 chl2c           1  0.60826437499999997        3.7477407714772232E-002  0.60826437499999997        0.0000000000000000        3.6254889555294880E-006
 chl           1   7.5148473055658463E-016   1.2354574120119803E-015  0.60826437499999997     
 chl2c           2  0.48302390000000001        3.2640259920490348E-002  0.48302390000000001        0.0000000000000000        1.5719126954247620E-019
 chl           2   5.9692194944643904E-016   1.2358020989156832E-015  0.48302390000000001     
 chl2c           3  0.75128689999999998        3.7922212503796585E-002  0.75128689999999998        0.0000000000000000        1.2839058597847973E-006
 chl           3   9.2818296915250334E-016   1.2354574120119803E-015  0.75128689999999998     
 chl2c           4  0.77318742499999993        3.7976509103863923E-002  0.77318742499999993        0.0000000000000000        9.1266970458821219E-016
 chl           4   9.5524013509070707E-016   1.2354574120119803E-015  0.77318742499999993     
 chl2c           5  0.48489679999999996        2.5710500362372445E-002  0.48489679999999996        0.0000000000000000        5.3956938707578188E-016
 chl           5   5.9923648319749818E-016   1.2358020989156832E-015  0.48489679999999996     
 chl2c           6  0.29222855000000003        3.1261039902252048E-002  0.29222855000000003        0.0000000000000000        2.8223616675288889E-008
 chl           6   3.6113665545308670E-016   1.2358020989156832E-015  0.29222855000000003     
 chl2c           7  0.22770740000000000        4.3064391842467263E-002  0.22770740000000000        0.0000000000000000        1.5338589293379005E-019
 chl           7   2.8140128285863304E-016   1.2358020989156832E-015  0.22770740000000000     
 chl2c           8  0.49578364999999996        4.7969800906495587E-002  0.49578364999999996        0.0000000000000000        1.6298060770273345E-019
 chl           8   6.1269047527807841E-016   1.2358020989156832E-015  0.49578364999999996     
 chl2c           9  0.28700202499999999        2.4803669054600401E-002  0.28700202499999999        0.0000000000000000        5.4184060478516471E-016
 chl           9   3.5467770488805136E-016   1.2358020989156832E-015  0.28700202499999999     
 chl2c          10  0.39094662499999999        2.5387016219684602E-002  0.39094662499999999        0.0000000000000000        5.4184846842869360E-016
 chl          10   4.8313265973900245E-016   1.2358020989156832E-015  0.39094662499999999     
 chl2c          11  0.49737575000000001        2.1820572217820047E-002  0.49737575000000001        0.0000000000000000        7.0013996347870522E-007
 chl          11   6.1465799579976215E-016   1.2358020989156832E-015  0.49737575000000001     
 chl2c          12  0.30768942500000002        4.5290941298723353E-002  0.30768942500000002        0.0000000000000000        1.6986098660511159E-009
 chl          12   3.8024323722915970E-016   1.2358020989156832E-015  0.30768942500000002     
 chl2c          13  0.75666275000000005        3.7935816987997487E-002  0.75666275000000005        0.0000000000000000        9.8177008918192291E-006
 chl          13   9.3482460288086780E-016   1.2354574120119799E-015  0.75666275000000005     
 chl2c          14  0.39804095000000000        4.6856526101924839E-002  0.39804095000000000        0.0000000000000000        2.3427743126701697E-018
 chl          14   4.9189984146439247E-016   1.2358020989156832E-015  0.39804095000000000     
 chl2c          15  0.25607262500000000        2.0954299823745293E-002  0.25607262500000000        0.0000000000000000        5.4323440909366671E-016
 chl          15   3.1645508744984863E-016   1.2358020989156832E-015  0.25607262500000000     
 chl2c          16  0.71433214999999994        3.7823443882273475E-002  0.71433214999999994        0.0000000000000000        9.5538592242604190E-006
 chl          16   8.8252694935595367E-016   1.2354574120119803E-015  0.71433214999999994     
 chl2c          17  0.62580860000000005        3.7542254757581245E-002  0.62580860000000005        0.0000000000000000        7.6691445143134296E-006
 chl          17   7.7315987337084066E-016   1.2354574120119803E-015  0.62580860000000005     
 chl2c          18  0.47925950000000000        2.5694475239060960E-002  0.47925950000000000        0.0000000000000000        5.4264453143577738E-016
 chl          18   5.9226989602528082E-016   1.2358020989156832E-015  0.47925950000000000     
 chl2c          19  0.63367130000000005        3.7570220750293731E-002  0.63367130000000005        0.0000000000000000        9.1266970458821219E-016
 chl          19   7.8287390436426728E-016   1.2354574120119803E-015  0.63367130000000005     
 chl2c          20  0.50678202500000002        3.7020645196759419E-002  0.50678202500000002        0.0000000000000000        9.8509831429610294E-006
 chl          20   6.2610760906069057E-016   1.2354574120119799E-015  0.50678202500000002     
 chl2c          21  0.71973185000000006        3.7838475073783531E-002  0.71973185000000006        0.0000000000000000        9.3329204647470846E-016
 chl          21   8.8919804874359454E-016   1.2354574120119799E-015  0.71973185000000006     
 chl2c          22  0.64616892500000001        3.7613353106285476E-002  0.64616892500000001        0.0000000000000000        9.1266970458821219E-016
 chl          22   7.9831418780306338E-016   1.2354574120119803E-015  0.64616892500000001     
 chl2c          23  0.41564179999999995        3.2286562315070731E-002  0.41564179999999995        0.0000000000000000        1.4944090241541101E-009
 chl          23   5.1365100883709250E-016   1.2358020989156832E-015  0.41564179999999995     
 chl2c          24  0.57597492500000003        3.7348402796863071E-002  0.57597492500000003        0.0000000000000000        9.2824344551941328E-016
 chl          24   7.1159249022429429E-016   1.2354574120119799E-015  0.57597492500000003     
 chl2c          25  0.31406487500000002        4.5426679235459781E-002  0.31406487500000002        0.0000000000000000        1.2054274077507138E-009
 chl          25   3.8812203172069172E-016   1.2358020989156832E-015  0.31406487500000002     
 chl2c          26  0.49427735000000000        4.7955660680174553E-002  0.49427735000000000        0.0000000000000000        1.4056385575872011E-009
 chl          26   6.1082898657648171E-016   1.2358020989156832E-015  0.49427735000000000     
 chl2c          27  0.30964730000000001        4.5333133499525620E-002  0.30964730000000001        0.0000000000000000        1.6339443759587437E-008
 chl          27   3.8266278326357425E-016   1.2358020989156832E-015  0.30964730000000001     
 chl2c          28  0.28776342500000002        3.1209236063453518E-002  0.28776342500000002        0.0000000000000000        2.3006819623806897E-008
 chl          28   3.5561864460616577E-016   1.2358020989156832E-015  0.28776342500000002     
 chl2c          29  0.68676297499999994        3.7743217595736761E-002  0.68676297499999994        0.0000000000000000        9.3416870020179830E-016
 chl          29   8.4846640775914802E-016   1.2354574120119799E-015  0.68676297499999994     
 chl2c          30  0.38930277499999999        2.5380056985171612E-002  0.38930277499999999        0.0000000000000000        3.0475982880492549E-006
 chl          30   4.8110118645869991E-016   1.2358020989156832E-015  0.38930277499999999     
 chl2c          31  0.63559385000000002        3.7576959810037038E-002  0.63559385000000002        0.0000000000000000        9.3635861117358122E-016
 chl          31   7.8524913301173057E-016   1.2354574120119799E-015  0.63559385000000002     
 chl2c          32  0.24722667500000001        2.0893126428578448E-002  0.24722667500000001        0.0000000000000000        5.4365791595242867E-016
 chl          32   3.0552324387294544E-016   1.2358020989156832E-015  0.24722667500000001     
 chl2c          33  0.60343137499999999        3.7458922634011876E-002  0.60343137499999999        0.0000000000000000        9.2987444876727097E-016
 chl          33   7.4551376488433058E-016   1.2354574120119799E-015  0.60343137499999999     
 chl2c          34  0.38241020000000003        2.5350269098008315E-002  0.38241020000000003        0.0000000000000000        5.3925588787316351E-016
 chl          34   4.7258332780676619E-016   1.2358020989156832E-015  0.38241020000000003     
 chl2c          35  0.49574644999999995        2.5740370148566064E-002  0.49574644999999995        0.0000000000000000        5.4005086486485512E-016
 chl          35   6.1264450343999868E-016   1.2358020989156832E-015  0.49574644999999995     
 chl2c          36  0.69587337500000002        3.7770393924465726E-002  0.69587337500000002        0.0000000000000000        9.1266970458821219E-016
 chl          36   8.5972191896554228E-016   1.2354574120119803E-015  0.69587337500000002     
 chl2c          37  0.33194060000000003        2.1353674699533250E-002  0.33194060000000003        0.0000000000000000        5.3891110699230392E-016
 chl          37   4.1021289019533126E-016   1.2358020989156832E-015  0.33194060000000003     
 chl2c          38  0.38455722500000000        2.1543295686358745E-002  0.38455722500000000        0.0000000000000000        5.4369815254943306E-016
 chl          38   4.7523662580819068E-016   1.2358020989156832E-015  0.38455722500000000     
 chl2c          39  0.47091117500000002        2.5670077108751441E-002  0.47091117500000002        0.0000000000000000        5.4155652962104720E-016
 chl          39   5.8195301846785065E-016   1.2358020989156832E-015  0.47091117500000002     
 chl2c          40  0.66875547499999999        3.7687445774703773E-002  0.66875547499999999        0.0000000000000000        9.5550761722770829E-006
 chl          40   8.2621890841234263E-016   1.2354574120119803E-015  0.66875547499999999     
 chl2c          41  0.44304987499999998        2.5582381488167241E-002  0.44304987499999998        0.0000000000000000        2.2002388560490310E-006
 chl          41   5.4752196544933104E-016   1.2358020989156832E-015  0.44304987499999998     
 chl2c          42  0.76234377499999995        3.7949995630725070E-002  0.76234377499999995        0.0000000000000000        9.7003460849297965E-006
 chl          42   9.4184326732494303E-016   1.2354574120119799E-015  0.76234377499999995     
 chl2c          43  0.29539925000000000        2.1185090152268007E-002  0.29539925000000000        0.0000000000000000        5.4365999715191892E-016
 chl          43   3.6505501316811861E-016   1.2358020989156832E-015  0.29539925000000000     
 chl2c          44  0.62417262500000004        3.7536352708156646E-002  0.62417262500000004        0.0000000000000000        9.7800271425070559E-006
 chl          44   7.7113869593122405E-016   1.2354574120119799E-015  0.62417262500000004     
 chl2c          45  0.37662252499999999        4.6544927192009838E-002  0.37662252499999999        0.0000000000000000        2.0658390260738754E-019
 chl          45   4.6543090689392437E-016   1.2358020989156832E-015  0.37662252499999999     
 chl2c          46  0.51876034999999998        3.7083195475449568E-002  0.51876034999999998        0.0000000000000000        9.3633168649953945E-016
 chl          46   6.4090631946542887E-016   1.2354574120119799E-015  0.51876034999999998     
 chl2c          47  0.61962282499999999        3.7519784612651236E-002  0.61962282499999999        0.0000000000000000        8.7501485347688242E-006
 chl          47   7.6551761179805194E-016   1.2354574120119799E-015  0.61962282499999999     
 chl2c          48  0.71424949999999998        3.7823212136301673E-002  0.71424949999999998        0.0000000000000000        9.8376149028967086E-006
 chl          48   8.8242483880085063E-016   1.2354574120119799E-015  0.71424949999999998     
 chl2c          49  0.53276120000000005        3.7152990741888416E-002  0.53276120000000005        0.0000000000000000        8.8748970500242349E-006
 chl          49   6.5820377337239687E-016   1.2354574120119799E-015  0.53276120000000005     
 chl2c          50  0.38132569999999999        2.1533072915600981E-002  0.38132569999999999        0.0000000000000000        5.4081525386074892E-016
 chl          50   4.7124310043049212E-016   1.2358020989156832E-015  0.38132569999999999     
 chl2c          51  0.22275920000000002        2.0700971146093840E-002  0.22275920000000002        0.0000000000000000        5.4422274640118036E-016
 chl          51   2.7528628691277846E-016   1.2358020989156832E-015  0.22275920000000002     
 chl2c          52  0.63698869999999996        3.7581825176985564E-002  0.63698869999999996        0.0000000000000000        9.6057552093275579E-006
 chl          52   7.8697241078287563E-016   1.2354574120119803E-015  0.63698869999999996     
 chl2c          53  0.75269794999999995        3.7925801262726190E-002  0.75269794999999995        0.0000000000000000        9.3717484672918733E-006
 chl          53   9.2992626133372298E-016   1.2354574120119803E-015  0.75269794999999995     
 chl2c          54  0.51861124999999997        3.7082433371327092E-002  0.51861124999999997        0.0000000000000000        8.9324817851042942E-006
 chl          54   6.4072211276529787E-016   1.2354574120119799E-015  0.51861124999999997     
 chl2c          55  0.57808280000000001        3.7357235588660491E-002  0.57808280000000001        0.0000000000000000        9.3785018340188733E-016
 chl          55   7.1419668001663900E-016   1.2354574120119799E-015  0.57808280000000001     
 chl2c          56  0.61626080000000005        3.7507394187257688E-002  0.61626080000000005        0.0000000000000000        9.1266970458821219E-016
 chl          56   7.6136397309243265E-016   1.2354574120119803E-015  0.61626080000000005     
 chl2c          57  0.68163462500000005        3.7727617852646313E-002  0.68163462500000005        0.0000000000000000        9.3832749251916958E-016
 chl          57   8.4213054974025644E-016   1.2354574120119799E-015  0.68163462500000005     
 chl2c          58  0.69416802499999997        3.7765358178394853E-002  0.69416802499999997        0.0000000000000000        9.1266970458821219E-016
 chl          58   8.5761503166796762E-016   1.2354574120119803E-015  0.69416802499999997     
 chl2c          59  0.53705127500000005        3.7173699120809672E-002  0.53705127500000005        0.0000000000000000        4.5105743675864275E-006
 chl          59   6.6350397832923422E-016   1.2354574120119799E-015  0.53705127500000005     
 chl2c          60  0.64452155000000000        3.7607757740906807E-002  0.64452155000000000        0.0000000000000000        9.2749755369690673E-016
 chl          60   7.9627892614894987E-016   1.2354574120119799E-015  0.64452155000000000     
 chl2c          61  0.70794139999999994        3.7805373434125003E-002  0.70794139999999994        0.0000000000000000        1.3883341456474093E-006
 chl          61   8.7463144990013781E-016   1.2354574120119799E-015  0.70794139999999994     
 chl2c          62  0.76481592499999995        3.7956103087269030E-002  0.76481592499999995        0.0000000000000000        9.7487195814153639E-006
 chl          62   9.4489750336604847E-016   1.2354574120119799E-015  0.76481592499999995     
 chl2c          63  0.72597904999999996        3.7855601011927406E-002  0.72597904999999996        0.0000000000000000        9.1266970458821219E-016
 chl          63   8.9691619828791593E-016   1.2354574120119803E-015  0.72597904999999996     
 chl2c          64  0.48435739999999999        2.5708982294816416E-002  0.48435739999999999        0.0000000000000000        5.3701171401179918E-016
 chl          64   5.9856989154534311E-016   1.2358020989156832E-015  0.48435739999999999     
 chl2c          65  0.76379975000000000        3.7953597170552002E-002  0.76379975000000000        0.0000000000000000        4.5086277042750969E-006
 chl          65   9.4364206243039753E-016   1.2354574120119803E-015  0.76379975000000000     
 chl2c          66  0.35213202499999996        3.1840477731474713E-002  0.35213202499999996        0.0000000000000000        1.6988762596763955E-019
 chl          66   4.3516549559042975E-016   1.2358020989156832E-015  0.35213202499999996     
 chl2c          67  0.75736760000000003        3.7937587124568600E-002  0.75736760000000003        0.0000000000000000        8.9453074825524742E-006
 chl          67   9.3569541503772435E-016   1.2354574120119799E-015  0.75736760000000003     
 chl2c          68  0.72590779999999999        3.7855407263856986E-002  0.72590779999999999        0.0000000000000000        9.1266970458821219E-016
 chl          68   8.9682817194731020E-016   1.2354574120119803E-015  0.72590779999999999     
 chl2c          69  0.45524217500000003        2.1732330561541505E-002  0.45524217500000003        0.0000000000000000        5.3964169758601790E-016
 chl          69   5.6258923537994083E-016   1.2358020989156832E-015  0.45524217500000003     
 chl2c          70  0.48694062500000002        3.2658010878182209E-002  0.48694062500000002        0.0000000000000000        2.8516081872970507E-008
 chl          70   6.0176224642231457E-016   1.2358020989156832E-015  0.48694062500000002     
 chl2c          71  0.23986107500000001        4.3481058864416305E-002  0.23986107500000001        0.0000000000000000        1.8998350270223149E-019
 chl          71   2.9642081993317209E-016   1.2358020989156832E-015  0.23986107500000001     
 chl2c          72  0.62790522500000001        3.7549776402781669E-002  0.62790522500000001        0.0000000000000000        9.6116553730517770E-006
 chl          72   7.7575016426730018E-016   1.2354574120119803E-015  0.62790522500000001     
 chl2c          73  0.35362212500000001        3.1852614277819484E-002  0.35362212500000001        0.0000000000000000        2.1335672919905946E-019
 chl          73   4.3700696429802412E-016   1.2358020989156832E-015  0.35362212500000001     
 chl2c          74  0.64719590000000005        3.7616827685877569E-002  0.64719590000000005        0.0000000000000000        9.3433105405277581E-016
 chl          74   7.9958297167876417E-016   1.2354574120119799E-015  0.64719590000000005     
 chl2c          75  0.71554212500000003        3.7826830779512356E-002  0.71554212500000003        0.0000000000000000        9.1266970458821219E-016
 chl          75   8.8402182193805295E-016   1.2354574120119803E-015  0.71554212500000003     
 chl2c          76  0.55513977500000000        3.7257729557919804E-002  0.55513977500000000        0.0000000000000000        9.1266970458821219E-016
 chl          76   6.8585154972641309E-016   1.2354574120119803E-015  0.55513977500000000     
 chl2c          77  0.52973029999999999        3.7138172437479272E-002  0.52973029999999999        0.0000000000000000        9.2657696500669596E-016
 chl          77   6.5445922550232969E-016   1.2354574120119799E-015  0.52973029999999999     
 chl2c          78  0.45117492500000000        4.7515248899399322E-002  0.45117492500000000        0.0000000000000000        2.9468997212879165E-018
 chl          78   5.5756291929312590E-016   1.2358020989156832E-015  0.45117492500000000     
 prod   7.7110126126041396E-010   0.0000000000000000        10.000000000000000     
 dcdom   1.1373155716318378E-012  -4.7426019515929538E-016
 chl2c           1  0.60826437499999997        3.7477407714772232E-002  0.60826437499999997        0.0000000000000000        9.3035873186596550E-016
 chl           1   1.5655971127882888E-010   2.5738760597121753E-010  0.60826437499999997     
 chl2c           2  0.48302390000000001        3.2640259920490348E-002  0.48302390000000001        0.0000000000000000        1.2740702688457072E-019
 chl           2   1.2435905132462703E-010   2.5745941624136410E-010  0.48302390000000001     
 chl2c           3  0.75128689999999998        3.7922212503796585E-002  0.75128689999999998        0.0000000000000000        5.9665614278725529E-006
 chl           3   1.9337193658853751E-010   2.5738760597121753E-010  0.75128689999999998     
 chl2c           4  0.77318742499999993        3.7976509103863923E-002  0.77318742499999993        0.0000000000000000        9.3035873186596550E-016
 chl           4   1.9900886028780029E-010   2.5738760597121753E-010  0.77318742499999993     
 chl2c           5  0.48489679999999996        2.5710500362372445E-002  0.48489679999999996        0.0000000000000000        5.3956938707573031E-016
 chl           5   1.2484124706530548E-010   2.5745941624136410E-010  0.48489679999999996     
 chl2c           6  0.29222855000000003        3.1261039902252048E-002  0.29222855000000003        0.0000000000000000        4.1824307526733599E-009
 chl           6   7.5236991892060283E-011   2.5745941624136410E-010  0.29222855000000003     
 chl2c           7  0.22770740000000000        4.3064391842467263E-002  0.22770740000000000        0.0000000000000000        1.2432252165190034E-019
 chl           7   5.8625414277838799E-011   2.5745941624136410E-010  0.22770740000000000     
 chl2c           8  0.49578364999999996        4.7969800906495587E-002  0.49578364999999996        0.0000000000000000        1.3209967746958972E-019
 chl           8   1.2764416911101276E-010   2.5745941624136410E-010  0.49578364999999996     
 chl2c           9  0.28700202499999999        2.4803669054600401E-002  0.28700202499999999        0.0000000000000000        5.4184060478512300E-016
 chl           9   7.3891373816589380E-011   2.5745941624136410E-010  0.28700202499999999     
 chl2c          10  0.39094662499999999        2.5387016219684602E-002  0.39094662499999999        0.0000000000000000        5.4184846842865209E-016
 chl          10   1.0065288985403148E-010   2.5745941624136410E-010  0.39094662499999999     
 chl2c          11  0.49737575000000001        2.1820572217820047E-002  0.49737575000000001        0.0000000000000000        4.1497319769717977E-006
 chl          11   1.2805407024761065E-010   2.5745941624136410E-010  0.49737575000000001     
 chl2c          12  0.30768942500000002        4.5290941298723353E-002  0.30768942500000002        0.0000000000000000        1.0669501319836247E-009
 chl          12   7.9217539744140978E-011   2.5745941624136410E-010  0.30768942500000002     
 chl2c          13  0.75666275000000005        3.7935816987997487E-002  0.75666275000000005        0.0000000000000000        8.4567091181067703E-006
 chl          13   1.9475561375009772E-010   2.5738760597121732E-010  0.75666275000000005     
 chl2c          14  0.39804095000000000        4.6856526101924839E-002  0.39804095000000000        0.0000000000000000        1.7445441411950629E-018
 chl          14   1.0247939062715800E-010   2.5745941624136410E-010  0.39804095000000000     
 chl2c          15  0.25607262500000000        2.0954299823745293E-002  0.25607262500000000        0.0000000000000000        5.4323440909363121E-016
 chl          15   6.5928308547893733E-011   2.5745941624136410E-010  0.25607262500000000     
 chl2c          16  0.71433214999999994        3.7823443882273475E-002  0.71433214999999994        0.0000000000000000        7.5473197161922601E-006
 chl          16   1.8386024195677265E-010   2.5738760597121753E-010  0.71433214999999994     
 chl2c          17  0.62580860000000005        3.7542254757581245E-002  0.62580860000000005        0.0000000000000000        8.5511339730075196E-006
 chl          17   1.6107537735019928E-010   2.5738760597121753E-010  0.62580860000000005     
 chl2c          18  0.47925950000000000        2.5694475239060960E-002  0.47925950000000000        0.0000000000000000        5.4264453143573932E-016
 chl          18   1.2338987109812803E-010   2.5745941624136410E-010  0.47925950000000000     
 chl2c          19  0.63367130000000005        3.7570220750293731E-002  0.63367130000000005        0.0000000000000000        9.2840726243781225E-016
 chl          19   1.6309913887966919E-010   2.5738760597121753E-010  0.63367130000000005     
 chl2c          20  0.50678202500000002        3.7020645196759419E-002  0.50678202500000002        0.0000000000000000        8.6734596797074741E-006
 chl          20   1.3043941216399560E-010   2.5738760597121732E-010  0.50678202500000002     
 chl2c          21  0.71973185000000006        3.7838475073783531E-002  0.71973185000000006        0.0000000000000000        9.3329204647457120E-016
 chl          21   1.8525005781273531E-010   2.5738760597121732E-010  0.71973185000000006     
 chl2c          22  0.64616892500000001        3.7613353106285476E-002  0.64616892500000001        0.0000000000000000        9.3035873186596550E-016
 chl          22   1.6631587265874521E-010   2.5738760597121753E-010  0.64616892500000001     
 chl2c          23  0.41564179999999995        3.2286562315070731E-002  0.41564179999999995        0.0000000000000000        1.8185853350017835E-019
 chl          23   1.0701089519350980E-010   2.5745941624136410E-010  0.41564179999999995     
 chl2c          24  0.57597492500000003        3.7348402796863071E-002  0.57597492500000003        0.0000000000000000        3.9819407874977307E-006
 chl          24   1.4824880704520146E-010   2.5738760597121732E-010  0.57597492500000003     
 chl2c          25  0.31406487500000002        4.5426679235459781E-002  0.31406487500000002        0.0000000000000000        1.3852021911880025E-019
 chl          25   8.0858959379416986E-011   2.5745941624136410E-010  0.31406487500000002     
 chl2c          26  0.49427735000000000        4.7955660680174553E-002  0.49427735000000000        0.0000000000000000        1.1738739287610625E-009
 chl          26   1.2725635799232840E-010   2.5745941624136410E-010  0.49427735000000000     
 chl2c          27  0.30964730000000001        4.5333133499525620E-002  0.30964730000000001        0.0000000000000000        1.5931035429218415E-008
 chl          27   7.9721613098714549E-011   2.5745941624136410E-010  0.30964730000000001     
 chl2c          28  0.28776342500000002        3.1209236063453518E-002  0.28776342500000002        0.0000000000000000        1.6064254571714254E-008
 chl          28   7.4087403416115566E-011   2.5745941624136410E-010  0.28776342500000002     
 chl2c          29  0.68676297499999994        3.7743217595736761E-002  0.68676297499999994        0.0000000000000000        9.3416870020166479E-016
 chl          29   1.7676427800492097E-010   2.5738760597121732E-010  0.68676297499999994     
 chl2c          30  0.38930277499999999        2.5380056985171612E-002  0.38930277499999999        0.0000000000000000        4.9026685798600461E-006
 chl          30   1.0022966519264311E-010   2.5745941624136410E-010  0.38930277499999999     
 chl2c          31  0.63559385000000002        3.7576959810037038E-002  0.63559385000000002        0.0000000000000000        9.3635861117345697E-016
 chl          31   1.6359397942152902E-010   2.5738760597121732E-010  0.63559385000000002     
 chl2c          32  0.24722667500000001        2.0893126428578448E-002  0.24722667500000001        0.0000000000000000        5.4365791595239495E-016
 chl          32   6.3650835424793452E-011   2.5745941624136410E-010  0.24722667500000001     
 chl2c          33  0.60343137499999999        3.7458922634011876E-002  0.60343137499999999        0.0000000000000000        9.2987444876711912E-016
 chl          33   1.5531575697916987E-010   2.5738760597121732E-010  0.60343137499999999     
 chl2c          34  0.38241020000000003        2.5350269098008315E-002  0.38241020000000003        0.0000000000000000        5.3925588787311066E-016
 chl          34   9.8455106856743305E-011   2.5745941624136410E-010  0.38241020000000003     
 chl2c          35  0.49574644999999995        2.5740370148566064E-002  0.49574644999999995        0.0000000000000000        2.6437918582227835E-006
 chl          35   1.2763459162072858E-010   2.5745941624136410E-010  0.49574644999999995     
 chl2c          36  0.69587337500000002        3.7770393924465726E-002  0.69587337500000002        0.0000000000000000        4.1336033600578058E-006
 chl          36   1.7910918205036131E-010   2.5738760597121753E-010  0.69587337500000002     
 chl2c          37  0.33194060000000003        2.1353674699533250E-002  0.33194060000000003        0.0000000000000000        5.3891110699224949E-016
 chl          37   8.5461233102808148E-011   2.5745941624136410E-010  0.33194060000000003     
 chl2c          38  0.38455722500000000        2.1543295686358745E-002  0.38455722500000000        0.0000000000000000        1.7434592065550371E-006
 chl          38   9.9007878659898913E-011   2.5745941624136410E-010  0.38455722500000000     
 chl2c          39  0.47091117500000002        2.5670077108751441E-002  0.47091117500000002        0.0000000000000000        2.9637300274278721E-007
 chl          39   1.2124051621703485E-010   2.5745941624136410E-010  0.47091117500000002     
 chl2c          40  0.66875547499999999        3.7687445774703773E-002  0.66875547499999999        0.0000000000000000        7.5578598633775479E-006
 chl          40   1.7212937069039442E-010   2.5738760597121753E-010  0.66875547499999999     
 chl2c          41  0.44304987499999998        2.5582381488167241E-002  0.44304987499999998        0.0000000000000000        5.3742533647827592E-016
 chl          41   1.1406736218330933E-010   2.5745941624136410E-010  0.44304987499999998     
 chl2c          42  0.76234377499999995        3.7949995630725070E-002  0.76234377499999995        0.0000000000000000        7.0425242350397087E-006
 chl          42   1.9621783917431034E-010   2.5738760597121732E-010  0.76234377499999995     
 chl2c          43  0.29539925000000000        2.1185090152268007E-002  0.29539925000000000        0.0000000000000000        5.4365999715188529E-016
 chl          43   7.6053318463136772E-011   2.5745941624136410E-010  0.29539925000000000     
 chl2c          44  0.62417262500000004        3.7536352708156646E-002  0.62417262500000004        0.0000000000000000        8.6467052231907558E-006
 chl          44   1.6065429766152040E-010   2.5738760597121732E-010  0.62417262500000004     
 chl2c          45  0.37662252499999999        4.6544927192009838E-002  0.37662252499999999        0.0000000000000000        1.6744370077894547E-019
 chl          45   9.6965015429848554E-011   2.5745941624136410E-010  0.37662252499999999     
 chl2c          46  0.51876034999999998        3.7083195475449568E-002  0.51876034999999998        0.0000000000000000        9.3633168649941500E-016
 chl          46   1.3352248455929079E-010   2.5738760597121732E-010  0.51876034999999998     
 chl2c          47  0.61962282499999999        3.7519784612651236E-002  0.61962282499999999        0.0000000000000000        8.7155117811459998E-006
 chl          47   1.5948323553187255E-010   2.5738760597121732E-010  0.61962282499999999     
 chl2c          48  0.71424949999999998        3.7823212136301673E-002  0.71424949999999998        0.0000000000000000        8.0671526979827313E-006
 chl          48   1.8383896887113899E-010   2.5738760597121732E-010  0.71424949999999998     
 chl2c          49  0.53276120000000005        3.7152990741888416E-002  0.53276120000000005        0.0000000000000000        8.6958266685455972E-006
 chl          49   1.3712612982235291E-010   2.5738760597121732E-010  0.53276120000000005     
 chl2c          50  0.38132569999999999        2.1533072915600981E-002  0.38132569999999999        0.0000000000000000        5.4081525386070277E-016
 chl          50   9.8175892119829530E-011   2.5745941624136410E-010  0.38132569999999999     
 chl2c          51  0.22275920000000002        2.0700971146093840E-002  0.22275920000000002        0.0000000000000000        2.0641922672849775E-006
 chl          51   5.7351453594393279E-011   2.5745941624136410E-010  0.22275920000000002     
 chl2c          52  0.63698869999999996        3.7581825176985564E-002  0.63698869999999996        0.0000000000000000        8.1996926925731573E-006
 chl          52   1.6395299652371809E-010   2.5738760597121753E-010  0.63698869999999996     
 chl2c          53  0.75269794999999995        3.7925801262726190E-002  0.75269794999999995        0.0000000000000000        6.4625818896430729E-006
 chl          53   1.9373512336994317E-010   2.5738760597121753E-010  0.75269794999999995     
 chl2c          54  0.51861124999999997        3.7082433371327092E-002  0.51861124999999997        0.0000000000000000        8.6587765863979450E-006
 chl          54   1.3348410806724046E-010   2.5738760597121732E-010  0.51861124999999997     
 chl2c          55  0.57808280000000001        3.7357235588660491E-002  0.57808280000000001        0.0000000000000000        9.3785018340176959E-016
 chl          55   1.4879134794513803E-010   2.5738760597121732E-010  0.57808280000000001     
 chl2c          56  0.61626080000000005        3.7507394187257688E-002  0.61626080000000005        0.0000000000000000        3.0163983113190269E-006
 chl          56   1.5861789196590730E-010   2.5738760597121753E-010  0.61626080000000005     
 chl2c          57  0.68163462500000005        3.7727617852646313E-002  0.68163462500000005        0.0000000000000000        9.3832749251905381E-016
 chl          57   1.7544430427583849E-010   2.5738760597121732E-010  0.68163462500000005     
 chl2c          58  0.69416802499999997        3.7765358178394853E-002  0.69416802499999997        0.0000000000000000        9.3035873186596550E-016
 chl          58   1.7867024609651827E-010   2.5738760597121753E-010  0.69416802499999997     
 chl2c          59  0.53705127500000005        3.7173699120809672E-002  0.53705127500000005        0.0000000000000000        9.3909806524886507E-016
 chl          59   1.3823034195603990E-010   2.5738760597121732E-010  0.53705127500000005     
 chl2c          60  0.64452155000000000        3.7607757740906807E-002  0.64452155000000000        0.0000000000000000        9.2749755369674502E-016
 chl          60   1.6589185875135825E-010   2.5738760597121732E-010  0.64452155000000000     
 chl2c          61  0.70794139999999994        3.7805373434125003E-002  0.70794139999999994        0.0000000000000000        6.0477208678505788E-006
 chl          61   1.8221534211391193E-010   2.5738760597121732E-010  0.70794139999999994     
 chl2c          62  0.76481592499999995        3.7956103087269030E-002  0.76481592499999995        0.0000000000000000        7.9291038858745967E-006
 chl          62   1.9685413994441208E-010   2.5738760597121732E-010  0.76481592499999995     
 chl2c          63  0.72597904999999996        3.7855601011927406E-002  0.72597904999999996        0.0000000000000000        9.2795586450704097E-016
 chl          63   1.8685800966475881E-010   2.5738760597121753E-010  0.72597904999999996     
 chl2c          64  0.48435739999999999        2.5708982294816416E-002  0.48435739999999999        0.0000000000000000        3.3471099309025605E-006
 chl          64   1.2470237345618487E-010   2.5745941624136410E-010  0.48435739999999999     
 chl2c          65  0.76379975000000000        3.7953597170552002E-002  0.76379975000000000        0.0000000000000000        9.3035873186596550E-016
 chl          65   1.9659258909391445E-010   2.5738760597121753E-010  0.76379975000000000     
 chl2c          66  0.35213202499999996        3.1840477731474713E-002  0.35213202499999996        0.0000000000000000        6.6657448476194138E-010
 chl          66   9.0659705596389420E-011   2.5745941624136410E-010  0.35213202499999996     
 chl2c          67  0.75736760000000003        3.7937587124568600E-002  0.75736760000000003        0.0000000000000000        8.6990899726358760E-006
 chl          67   1.9493703340416654E-010   2.5738760597121732E-010  0.75736760000000003     
 chl2c          68  0.72590779999999999        3.7855407263856986E-002  0.72590779999999999        0.0000000000000000        9.3035873186596550E-016
 chl          68   1.8683967079783338E-010   2.5738760597121753E-010  0.72590779999999999     
 chl2c          69  0.45524217500000003        2.1732330561541505E-002  0.45524217500000003        0.0000000000000000        5.3964169758596673E-016
 chl          69   1.1720638462394894E-010   2.5745941624136410E-010  0.45524217500000003     
 chl2c          70  0.48694062500000002        3.2658010878182209E-002  0.48694062500000002        0.0000000000000000        1.9873569990222717E-008
 chl          70   1.2536744905670499E-010   2.5745941624136410E-010  0.48694062500000002     
 chl2c          71  0.23986107500000001        4.3481058864416305E-002  0.23986107500000001        0.0000000000000000        1.5398759910536324E-019
 chl          71   6.1754492348526052E-011   2.5745941624136410E-010  0.23986107500000001     
 chl2c          72  0.62790522500000001        3.7549776402781669E-002  0.62790522500000001        0.0000000000000000        8.4384933174599575E-006
 chl          72   1.6161502263956870E-010   2.5738760597121753E-010  0.62790522500000001     
 chl2c          73  0.35362212500000001        3.1852614277819484E-002  0.35362212500000001        0.0000000000000000        1.2967222624150133E-010
 chl          73   9.1043345872530688E-011   2.5745941624136410E-010  0.35362212500000001     
 chl2c          74  0.64719590000000005        3.7616827685877569E-002  0.64719590000000005        0.0000000000000000        9.3433105405264288E-016
 chl          74   1.6658020329538739E-010   2.5738760597121732E-010  0.64719590000000005     
 chl2c          75  0.71554212500000003        3.7826830779512356E-002  0.71554212500000003        0.0000000000000000        4.6789776820885308E-006
 chl          75   1.8417167452530768E-010   2.5738760597121753E-010  0.71554212500000003     
 chl2c          76  0.55513977500000000        3.7257729557919804E-002  0.55513977500000000        0.0000000000000000        9.3035873186596550E-016
 chl          76   1.4288609766665037E-010   2.5738760597121753E-010  0.55513977500000000     
 chl2c          77  0.52973029999999999        3.7138172437479272E-002  0.52973029999999999        0.0000000000000000        9.2657696500653030E-016
 chl          77   1.3634601372741474E-010   2.5738760597121732E-010  0.52973029999999999     
 chl2c          78  0.45117492500000000        4.7515248899399322E-002  0.45117492500000000        0.0000000000000000        2.1949593222287968E-018
 chl          78   1.1615923281324124E-010   2.5745941624136410E-010  0.45117492500000000     
 prod   6.2496097295889118E-010   0.0000000000000000        10.000000000000000     
 dcdom   9.2614307453930047E-013  -1.0581559924492989E-015
 chl2c           1  0.60826437499999997        3.7477407714772232E-002  0.60826437499999997        0.0000000000000000        9.3573064626985839E-016
 chl           1   7.4373231940781496E-010   1.2227122777128202E-009  0.60826437499999997     
 chl2c           2  0.48302390000000001        3.2640259920490348E-002  0.48302390000000001        0.0000000000000000        9.2618841817037319E-020
 chl           2   5.9069680994025377E-010   1.2229142490470011E-009  0.48302390000000001     
 chl2c           3  0.75128689999999998        3.7922212503796585E-002  0.75128689999999998        0.0000000000000000        7.1681676447172524E-006
 chl           3   9.1860771671480378E-010   1.2227122777128202E-009  0.75128689999999998     
 chl2c           4  0.77318742499999993        3.7976509103863923E-002  0.77318742499999993        0.0000000000000000        9.3825301909584378E-016
 chl           4   9.4538575752066023E-010   1.2227122777128202E-009  0.77318742499999993     
 chl2c           5  0.48489679999999996        2.5710500362372445E-002  0.48489679999999996        0.0000000000000000        5.3956938707588631E-016
 chl           5   5.9298720603729379E-010   1.2229142490470011E-009  0.48489679999999996     
 chl2c           6  0.29222855000000003        3.1261039902252048E-002  0.29222855000000003        0.0000000000000000        1.5626311839213833E-018
 chl           6   3.5737045777334405E-010   1.2229142490470011E-009  0.29222855000000003     
 chl2c           7  0.22770740000000000        4.3064391842467263E-002  0.22770740000000000        0.0000000000000000        9.0376415249697552E-020
 chl           7   2.7846662407344509E-010   1.2229142490470011E-009  0.22770740000000000     
 chl2c           8  0.49578364999999996        4.7969800906495587E-002  0.49578364999999996        0.0000000000000000        9.6030398648031056E-020
 chl           8   6.0630089002953117E-010   1.2229142490470011E-009  0.49578364999999996     
 chl2c           9  0.28700202499999999        2.4803669054600401E-002  0.28700202499999999        0.0000000000000000        5.4184060478524892E-016
 chl           9   3.5097886587784364E-010   1.2229142490470011E-009  0.28700202499999999     
 chl2c          10  0.39094662499999999        2.5387016219684602E-002  0.39094662499999999        0.0000000000000000        5.4184846842877781E-016
 chl          10   4.7809419832933447E-010   1.2229142490470011E-009  0.39094662499999999     
 chl2c          11  0.49737575000000001        2.1820572217820047E-002  0.49737575000000001        0.0000000000000000        4.5880234368216464E-006
 chl          11   6.0824789180543899E-010   1.2229142490470011E-009  0.49737575000000001     
 chl2c          12  0.30768942500000002        4.5290941298723353E-002  0.30768942500000002        0.0000000000000000        4.9427800705111208E-010
 chl          12   3.7627778211357856E-010   1.2229142490470011E-009  0.30768942500000002     
 chl2c          13  0.75666275000000005        3.7935816987997487E-002  0.75666275000000005        0.0000000000000000        7.2644045989254888E-006
 chl          13   9.2518083443519839E-010   1.2227122776100691E-009  0.75666275000000005     
 chl2c          14  0.39804095000000000        4.6856526101924839E-002  0.39804095000000000        0.0000000000000000        1.5500990073001890E-009
 chl          14   4.8676994945920488E-010   1.2229142490470011E-009  0.39804095000000000     
 chl2c          15  0.25607262500000000        2.0954299823745293E-002  0.25607262500000000        0.0000000000000000        5.4323440909373850E-016
 chl          15   3.1315486190336930E-010   1.2229142490470011E-009  0.25607262500000000     
 chl2c          16  0.71433214999999994        3.7823443882273475E-002  0.71433214999999994        0.0000000000000000        5.5527144297644133E-006
 chl          16   8.7342269016999591E-010   1.2227122777128202E-009  0.71433214999999994     
 chl2c          17  0.62580860000000005        3.7542254757581245E-002  0.62580860000000005        0.0000000000000000        8.2298583883034072E-006
 chl          17   7.6518385871827130E-010   1.2227122777128202E-009  0.62580860000000005     
 chl2c          18  0.47925950000000000        2.5694475239060960E-002  0.47925950000000000        0.0000000000000000        1.3385898378202570E-006
 chl          18   5.8609327154114117E-010   1.2229142490470011E-009  0.47925950000000000     
 chl2c          19  0.63367130000000005        3.7570220750293731E-002  0.63367130000000005        0.0000000000000000        9.2840726243829050E-016
 chl          19   7.7479767854424387E-010   1.2227122777128202E-009  0.63367130000000005     
 chl2c          20  0.50678202500000002        3.7020645196759419E-002  0.50678202500000002        0.0000000000000000        7.8266981275295655E-006
 chl          20   6.1964860403959297E-010   1.2227122776100691E-009  0.50678202500000002     
 chl2c          21  0.71973185000000006        3.7838475073783531E-002  0.71973185000000006        0.0000000000000000        9.3329204647498673E-016
 chl          21   8.8002496958200862E-010   1.2227122776100691E-009  0.71973185000000006     
 chl2c          22  0.64616892500000001        3.7613353106285476E-002  0.64616892500000001        0.0000000000000000        9.3808823857010022E-016
 chl          22   7.9007867807399446E-010   1.2227122777128202E-009  0.64616892500000001     
 chl2c          23  0.41564179999999995        3.2286562315070731E-002  0.41564179999999995        0.0000000000000000        1.3220606156082458E-019
 chl          23   5.0829427971954374E-010   1.2229142490470011E-009  0.41564179999999995     
 chl2c          24  0.57597492500000003        3.7348402796863071E-002  0.57597492500000003        0.0000000000000000        5.8744379505767056E-006
 chl          24   7.0425161239303874E-010   1.2227122776100691E-009  0.57597492500000003     
 chl2c          25  0.31406487500000002        4.5426679235459781E-002  0.31406487500000002        0.0000000000000000        1.0069815793464251E-019
 chl          25   3.8407441076266528E-010   1.2229142490470011E-009  0.31406487500000002     
 chl2c          26  0.49427735000000000        4.7955660680174553E-002  0.49427735000000000        0.0000000000000000        8.0271208480415496E-010
 chl          26   6.0445881429619172E-010   1.2229142490470011E-009  0.49427735000000000     
 chl2c          27  0.30964730000000001        4.5333133499525620E-002  0.30964730000000001        0.0000000000000000        1.0366039443420675E-008
 chl          27   3.7867209534893148E-010   1.2229142490470011E-009  0.30964730000000001     
 chl2c          28  0.28776342500000002        3.1209236063453518E-002  0.28776342500000002        0.0000000000000000        1.0291176185368344E-008
 chl          28   3.5190999278706801E-010   1.2229142490470011E-009  0.28776342500000002     
 chl2c          29  0.68676297499999994        3.7743217595736761E-002  0.68676297499999994        0.0000000000000000        9.3416870020206908E-016
 chl          29   8.3971352134051686E-010   1.2227122776100691E-009  0.68676297499999994     
 chl2c          30  0.38930277499999999        2.5380056985171612E-002  0.38930277499999999        0.0000000000000000        4.7651311768866605E-006
 chl          30   4.7608391074103856E-010   1.2229142490470011E-009  0.38930277499999999     
 chl2c          31  0.63559385000000002        3.7576959810037038E-002  0.63559385000000002        0.0000000000000000        9.3635861117383306E-016
 chl          31   7.7714840396845261E-010   1.2227122776100691E-009  0.63559385000000002     
 chl2c          32  0.24722667500000001        2.0893126428578448E-002  0.24722667500000001        0.0000000000000000        5.4365791595249671E-016
 chl          32   3.0233702360201198E-010   1.2229142490470011E-009  0.24722667500000001     
 chl2c          33  0.60343137499999999        3.7458922634011876E-002  0.60343137499999999        0.0000000000000000        9.2987444876757863E-016
 chl          33   7.3782295090762563E-010   1.2227122776100691E-009  0.60343137499999999     
 chl2c          34  0.38241020000000003        2.5350269098008315E-002  0.38241020000000003        0.0000000000000000        5.3925588787327080E-016
 chl          34   4.6765488256091350E-010   1.2229142490470011E-009  0.38241020000000003     
 chl2c          35  0.49574644999999995        2.5740370148566064E-002  0.49574644999999995        0.0000000000000000        3.9412088570489686E-006
 chl          35   6.0625539761946655E-010   1.2229142490470011E-009  0.49574644999999995     
 chl2c          36  0.69587337500000002        3.7770393924465726E-002  0.69587337500000002        0.0000000000000000        5.9874233055494006E-006
 chl          36   8.5085291934595749E-010   1.2227122777128202E-009  0.69587337500000002     
 chl2c          37  0.33194060000000003        2.1353674699533250E-002  0.33194060000000003        0.0000000000000000        2.4830592842790398E-007
 chl          37   4.0593488957721101E-010   1.2229142490470011E-009  0.33194060000000003     
 chl2c          38  0.38455722500000000        2.1543295686358745E-002  0.38455722500000000        0.0000000000000000        3.4160600015661228E-006
 chl          38   4.7028051002647366E-010   1.2229142490470011E-009  0.38455722500000000     
 chl2c          39  0.47091117500000002        2.5670077108751441E-002  0.47091117500000002        0.0000000000000000        2.2084379712441624E-006
 chl          39   5.7588398594296589E-010   1.2229142490470011E-009  0.47091117500000002     
 chl2c          40  0.66875547499999999        3.7687445774703773E-002  0.66875547499999999        0.0000000000000000        5.5704263371718869E-006
 chl          40   8.1769553007016893E-010   1.2227122777128202E-009  0.66875547499999999     
 chl2c          41  0.44304987499999998        2.5582381488167241E-002  0.44304987499999998        0.0000000000000000        5.3742533647846002E-016
 chl          41   5.4181200517599265E-010   1.2229142490470011E-009  0.44304987499999998     
 chl2c          42  0.76234377499999995        3.7949995630725070E-002  0.76234377499999995        0.0000000000000000        4.6898095377889796E-006
 chl          42   9.3212709345210804E-010   1.2227122776100691E-009  0.76234377499999995     
 chl2c          43  0.29539925000000000        2.1185090152268007E-002  0.29539925000000000        0.0000000000000000        5.4365999715198695E-016
 chl          43   3.6124795198279731E-010   1.2229142490470011E-009  0.29539925000000000     
 chl2c          44  0.62417262500000004        3.7536352708156646E-002  0.62417262500000004        0.0000000000000000        7.9082572044138115E-006
 chl          44   7.6318353193560558E-010   1.2227122776100691E-009  0.62417262500000004     
 chl2c          45  0.37662252499999999        4.6544927192009838E-002  0.37662252499999999        0.0000000000000000        1.2172601229405561E-019
 chl          45   4.6057705233456039E-010   1.2229142490470011E-009  0.37662252499999999     
 chl2c          46  0.51876034999999998        3.7083195475449568E-002  0.51876034999999998        0.0000000000000000        9.3633168649979149E-016
 chl          46   6.3429464908229659E-010   1.2227122776100691E-009  0.51876034999999998     
 chl2c          47  0.61962282499999999        3.7519784612651236E-002  0.61962282499999999        0.0000000000000000        8.2275095274921786E-006
 chl          47   7.5762043561493526E-010   1.2227122776100691E-009  0.61962282499999999     
 chl2c          48  0.71424949999999998        3.7823212136301673E-002  0.71424949999999998        0.0000000000000000        6.3881444487338018E-006
 chl          48   8.7332163292685303E-010   1.2227122776100691E-009  0.71424949999999998     
 chl2c          49  0.53276120000000005        3.7152990741888416E-002  0.53276120000000005        0.0000000000000000        8.1975807315995204E-006
 chl          49   6.5141366027427354E-010   1.2227122776100691E-009  0.53276120000000005     
 chl2c          50  0.38132569999999999        2.1533072915600981E-002  0.38132569999999999        0.0000000000000000        5.4081525386084230E-016
 chl          50   4.6632863205782196E-010   1.2229142490470011E-009  0.38132569999999999     
 chl2c          51  0.22275920000000002        2.0700971146093840E-002  0.22275920000000002        0.0000000000000000        3.6263082634337028E-006
 chl          51   2.7241539978631072E-010   1.2229142490470011E-009  0.22275920000000002     
 chl2c          52  0.63698869999999996        3.7581825176985564E-002  0.63698869999999996        0.0000000000000000        6.7652438855370789E-006
 chl          52   7.7885390425432829E-010   1.2227122777128202E-009  0.63698869999999996     
 chl2c          53  0.75269794999999995        3.7925801262726190E-002  0.75269794999999995        0.0000000000000000        3.9139753501189995E-006
 chl          53   9.2033302487427041E-010   1.2227122777128202E-009  0.75269794999999995     
 chl2c          54  0.51861124999999997        3.7082433371327092E-002  0.51861124999999997        0.0000000000000000        8.1562111675625530E-006
 chl          54   6.3411234268170494E-010   1.2227122776100691E-009  0.51861124999999997     
 chl2c          55  0.57808280000000001        3.7357235588660491E-002  0.57808280000000001        0.0000000000000000        9.3785018340212616E-016
 chl          55   7.0682893703520608E-010   1.2227122776100691E-009  0.57808280000000001     
 chl2c          56  0.61626080000000005        3.7507394187257688E-002  0.61626080000000005        0.0000000000000000        5.2150280106290336E-006
 chl          56   7.5350964643312483E-010   1.2227122777128202E-009  0.61626080000000005     
 chl2c          57  0.68163462500000005        3.7727617852646313E-002  0.68163462500000005        0.0000000000000000        9.3832749251940426E-016
 chl          57   8.3344302483163535E-010   1.2227122776100691E-009  0.68163462500000005     
 chl2c          58  0.69416802499999997        3.7765358178394853E-002  0.69416802499999997        0.0000000000000000        9.3738648207146855E-016
 chl          58   8.4876776696315987E-010   1.2227122777128202E-009  0.69416802499999997     
 chl2c          59  0.53705127500000005        3.7173699120809672E-002  0.53705127500000005        0.0000000000000000        9.3909806524920547E-016
 chl          59   6.5665918764864160E-010   1.2227122776100691E-009  0.53705127500000005     
 chl2c          60  0.64452155000000000        3.7607757740906807E-002  0.64452155000000000        0.0000000000000000        9.2749755369723470E-016
 chl          60   7.8806441236927199E-010   1.2227122776100691E-009  0.64452155000000000     
 chl2c          61  0.70794139999999994        3.7805373434125003E-002  0.70794139999999994        0.0000000000000000        7.1718443173060087E-006
 chl          61   8.6560864160846088E-010   1.2227122776100691E-009  0.70794139999999994     
 chl2c          62  0.76481592499999995        3.7956103087269030E-002  0.76481592499999995        0.0000000000000000        6.2021867972357987E-006
 chl          62   9.3514982160920176E-010   1.2227122776100691E-009  0.76481592499999995     
 chl2c          63  0.72597904999999996        3.7855601011927406E-002  0.72597904999999996        0.0000000000000000        9.2795586450752494E-016
 chl          63   8.8766349779728937E-010   1.2227122777128202E-009  0.72597904999999996     
 chl2c          64  0.48435739999999999        2.5708982294816416E-002  0.48435739999999999        0.0000000000000000        4.2626598705503031E-006
 chl          64   5.9232756609135787E-010   1.2229142490470011E-009  0.48435739999999999     
 chl2c          65  0.76379975000000000        3.7953597170552002E-002  0.76379975000000000        0.0000000000000000        9.3121357234572420E-016
 chl          65   9.3390733203898266E-010   1.2227122777128202E-009  0.76379975000000000     
 chl2c          66  0.35213202499999996        3.1840477731474713E-002  0.35213202499999996        0.0000000000000000        7.2760657630931501E-010
 chl          66   4.3062727091827473E-010   1.2229142490470011E-009  0.35213202499999996     
 chl2c          67  0.75736760000000003        3.7937587124568600E-002  0.75736760000000003        0.0000000000000000        8.1960357351025186E-006
 chl          67   9.2604266318407181E-010   1.2227122776100691E-009  0.75736760000000003     
 chl2c          68  0.72590779999999999        3.7855407263856986E-002  0.72590779999999999        0.0000000000000000        9.3825301909584378E-016
 chl          68   8.8757637954750238E-010   1.2227122777128202E-009  0.72590779999999999     
 chl2c          69  0.45524217500000003        2.1732330561541505E-002  0.45524217500000003        0.0000000000000000        5.3964169758612184E-016
 chl          69   5.5672214257464850E-010   1.2229142490470011E-009  0.45524217500000003     
 chl2c          70  0.48694062500000002        3.2658010878182209E-002  0.48694062500000002        0.0000000000000000        1.2732507902807738E-008
 chl          70   5.9548662875235238E-010   1.2229142490470011E-009  0.48694062500000002     
 chl2c          71  0.23986107500000001        4.3481058864416305E-002  0.23986107500000001        0.0000000000000000        1.1194312659905194E-019
 chl          71   2.9332952640923138E-010   1.2229142490470011E-009  0.23986107500000001     
 chl2c          72  0.62790522500000001        3.7549776402781669E-002  0.62790522500000001        0.0000000000000000        7.3082939429811541E-006
 chl          72   7.6774742784753086E-010   1.2227122777128202E-009  0.62790522500000001     
 chl2c          73  0.35362212500000001        3.1852614277819484E-002  0.35362212500000001        0.0000000000000000        5.3817911662351016E-010
 chl          73   4.3244953544077977E-010   1.2229142490470011E-009  0.35362212500000001     
 chl2c          74  0.64719590000000005        3.7616827685877569E-002  0.64719590000000005        0.0000000000000000        9.3433105405304520E-016
 chl          74   7.9133437294889860E-010   1.2227122776100691E-009  0.64719590000000005     
 chl2c          75  0.71554212500000003        3.7826830779512356E-002  0.71554212500000003        0.0000000000000000        6.3542070736776634E-006
 chl          75   8.7490214145822157E-010   1.2227122777128202E-009  0.71554212500000003     
 chl2c          76  0.55513977500000000        3.7257729557919804E-002  0.55513977500000000        0.0000000000000000        9.3441787708430491E-016
 chl          76   6.7877621873923253E-010   1.2227122777128202E-009  0.55513977500000000     
 chl2c          77  0.52973029999999999        3.7138172437479272E-002  0.52973029999999999        0.0000000000000000        9.2657696500703163E-016
 chl          77   6.4770774163206518E-010   1.2227122776100691E-009  0.52973029999999999     
 chl2c          78  0.45117492500000000        4.7515248899399322E-002  0.45117492500000000        0.0000000000000000        1.4985339943413780E-018
 chl          78   5.5174824459521205E-010   1.2229142490470011E-009  0.45117492500000000     
 prod   4.5428818747853769E-010   0.0000000000000000        10.000000000000000     
 dcdom   6.7582166394612355E-013  -3.4744378438347875E-015
 chl2c           1  0.60826437499999997        3.7477407714772232E-002  0.60826437499999997        0.0000000000000000        9.3573064626855500E-016
 chl           1   2.0410572703198938E-010   3.3555430076270599E-010  0.60826437499999997     
 chl2c           2  0.48302390000000001        3.2640259920490348E-002  0.48302390000000001        0.0000000000000000        4.0969013591141119E-020
 chl           2   1.6202096501165889E-010   3.3543053462087258E-010  0.48302390000000001     
 chl2c           3  0.75128689999999998        3.7922212503796585E-002  0.75128689999999998        0.0000000000000000        7.3531430179272932E-006
 chl           3   2.5209755040168101E-010   3.3555430076270599E-010  0.75128689999999998     
 chl2c           4  0.77318742499999993        3.7976509103863923E-002  0.77318742499999993        0.0000000000000000        9.3841762853436547E-016
 chl           4   2.5944636575439214E-010   3.3555430076270599E-010  0.77318742499999993     
 chl2c           5  0.48489679999999996        2.5710500362372445E-002  0.48489679999999996        0.0000000000000000        5.3956938707535718E-016
 chl           5   1.6264919285995030E-010   3.3543053462087258E-010  0.48489679999999996     
 chl2c           6  0.29222855000000003        3.1261039902252048E-002  0.29222855000000003        0.0000000000000000        6.3849849419767244E-019
 chl           6   9.8022378757982409E-011   3.3543053462087258E-010  0.29222855000000003     
 chl2c           7  0.22770740000000000        4.3064391842467263E-002  0.22770740000000000        0.0000000000000000        3.9977008021719606E-020
 chl           7   7.6380014919128879E-011   3.3543053462087258E-010  0.22770740000000000     
 chl2c           8  0.49578364999999996        4.7969800906495587E-002  0.49578364999999996        0.0000000000000000        4.2478228113560449E-020
 chl           8   1.6630097477578756E-010   3.3543053462087258E-010  0.49578364999999996     
 chl2c           9  0.28700202499999999        2.4803669054600401E-002  0.28700202499999999        0.0000000000000000        5.4184060478482175E-016
 chl           9   9.6269242683023035E-011   3.3543053462087258E-010  0.28700202499999999     
 chl2c          10  0.39094662499999999        2.5387016219684602E-002  0.39094662499999999        0.0000000000000000        5.4184846842835104E-016
 chl          10   1.3113543543197577E-010   3.3543053462087258E-010  0.39094662499999999     
 chl2c          11  0.49737575000000001        2.1820572217820047E-002  0.49737575000000001        0.0000000000000000        4.5799002616660626E-006
 chl          11   1.6683501372995747E-010   3.3543053462087258E-010  0.49737575000000001     
 chl2c          12  0.30768942500000002        4.5290941298723353E-002  0.30768942500000002        0.0000000000000000        1.6047820398121183E-010
 chl          12   1.0320842832493889E-010   3.3543053462087258E-010  0.30768942500000002     
 chl2c          13  0.75666275000000005        3.7935816987997487E-002  0.75666275000000005        0.0000000000000000        6.6762400906530837E-006
 chl          13   2.5390143998805538E-010   3.3555430076088107E-010  0.75666275000000005     
 chl2c          14  0.39804095000000000        4.6856526101924839E-002  0.39804095000000000        0.0000000000000000        1.2539758660046567E-009
 chl          14   1.3351508865950002E-010   3.3543053462087258E-010  0.39804095000000000     
 chl2c          15  0.25607262500000000        2.0954299823745293E-002  0.25607262500000000        0.0000000000000000        5.4323440909337454E-016
 chl          15   8.5894577505520225E-011   3.3543053462087258E-010  0.25607262500000000     
 chl2c          16  0.71433214999999994        3.7823443882273475E-002  0.71433214999999994        0.0000000000000000        4.6388162045784298E-006
 chl          16   2.3969722510557038E-010   3.3555430076270599E-010  0.71433214999999994     
 chl2c          17  0.62580860000000005        3.7542254757581245E-002  0.62580860000000005        0.0000000000000000        8.0532685585945851E-006
 chl          17   2.0999276718428797E-010   3.3555430076270599E-010  0.62580860000000005     
 chl2c          18  0.47925950000000000        2.5694475239060960E-002  0.47925950000000000        0.0000000000000000        2.0206711081213347E-006
 chl          18   1.6075827030713208E-010   3.3543053462087258E-010  0.47925950000000000     
 chl2c          19  0.63367130000000005        3.7570220750293731E-002  0.63367130000000005        0.0000000000000000        9.2840726243666801E-016
 chl          19   2.1263112998489492E-010   3.3555430076270599E-010  0.63367130000000005     
 chl2c          20  0.50678202500000002        3.7020645196759419E-002  0.50678202500000002        0.0000000000000000        7.4097147556559091E-006
 chl          20   1.7005288803705835E-010   3.3555430076088107E-010  0.50678202500000002     
 chl2c          21  0.71973185000000006        3.7838475073783531E-002  0.71973185000000006        0.0000000000000000        9.3329204647357645E-016
 chl          21   2.4150911766208534E-010   3.3555430076088107E-010  0.71973185000000006     
 chl2c          22  0.64616892500000001        3.7613353106285476E-002  0.64616892500000001        0.0000000000000000        9.3808823856890075E-016
 chl          22   2.1682476180296442E-010   3.3555430076270599E-010  0.64616892500000001     
 chl2c          23  0.41564179999999995        3.2286562315070731E-002  0.41564179999999995        0.0000000000000000        5.8482365188393330E-020
 chl          23   1.3941895118478177E-010   3.3543053462087258E-010  0.41564179999999995     
 chl2c          24  0.57597492500000003        3.7348402796863071E-002  0.57597492500000003        0.0000000000000000        6.3264261821698034E-006
 chl          24   1.9327086321417594E-010   3.3555430076088107E-010  0.57597492500000003     
 chl2c          25  0.31406487500000002        4.5426679235459781E-002  0.31406487500000002        0.0000000000000000        4.4543182048160595E-020
 chl          25   1.0534694892688753E-010   3.3543053462087258E-010  0.31406487500000002     
 chl2c          26  0.49427735000000000        4.7955660680174553E-002  0.49427735000000000        0.0000000000000000        3.4691326064498895E-010
 chl          26   1.6579571576148815E-010   3.3543053462087258E-010  0.49427735000000000     
 chl2c          27  0.30964730000000001        4.5333133499525620E-002  0.30964730000000001        0.0000000000000000        4.1389409953999618E-009
 chl          27   1.0386515938290973E-010   3.3543053462087258E-010  0.30964730000000001     
 chl2c          28  0.28776342500000002        3.1209236063453518E-002  0.28776342500000002        0.0000000000000000        4.0913222507283815E-009
 chl          28   9.6524639492083377E-011   3.3543053462087258E-010  0.28776342500000002     
 chl2c          29  0.68676297499999994        3.7743217595736761E-002  0.68676297499999994        0.0000000000000000        9.3416870020069705E-016
 chl          29   2.3044626986458743E-010   3.3555430076088107E-010  0.68676297499999994     
 chl2c          30  0.38930277499999999        2.5380056985171612E-002  0.38930277499999999        0.0000000000000000        4.6645662312764599E-006
 chl          30   1.3058403794763926E-010   3.3543053462087258E-010  0.38930277499999999     
 chl2c          31  0.63559385000000002        3.7576959810037038E-002  0.63559385000000002        0.0000000000000000        9.3635861117255728E-016
 chl          31   2.1327624990466633E-010   3.3555430076088107E-010  0.63559385000000002     
 chl2c          32  0.24722667500000001        2.0893126428578448E-002  0.24722667500000001        0.0000000000000000        5.4365791595215168E-016
 chl          32   8.2927375767790720E-011   3.3543053462087258E-010  0.24722667500000001     
 chl2c          33  0.60343137499999999        3.7458922634011876E-002  0.60343137499999999        0.0000000000000000        9.2987444876601964E-016
 chl          33   2.0248399309530202E-010   3.3555430076088107E-010  0.60343137499999999     
 chl2c          34  0.38241020000000003        2.5350269098008315E-002  0.38241020000000003        0.0000000000000000        5.3925588787272757E-016
 chl          34   1.2827205783047481E-010   3.3543053462087258E-010  0.38241020000000003     
 chl2c          35  0.49574644999999995        2.5740370148566064E-002  0.49574644999999995        0.0000000000000000        4.1661968172084258E-006
 chl          35   1.6628849675989967E-010   3.3543053462087258E-010  0.49574644999999995     
 chl2c          36  0.69587337500000002        3.7770393924465726E-002  0.69587337500000002        0.0000000000000000        6.4219266774001887E-006
 chl          36   2.3350330376750927E-010   3.3555430076270599E-010  0.69587337500000002     
 chl2c          37  0.33194060000000003        2.1353674699533250E-002  0.33194060000000003        0.0000000000000000        9.1430096511348810E-007
 chl          37   1.1134301292037323E-010   3.3543053462087258E-010  0.33194060000000003     
 chl2c          38  0.38455722500000000        2.1543295686358745E-002  0.38455722500000000        0.0000000000000000        3.7942020255306844E-006
 chl          38   1.2899223557406918E-010   3.3543053462087258E-010  0.38455722500000000     
 chl2c          39  0.47091117500000002        2.5670077108751441E-002  0.47091117500000002        0.0000000000000000        2.8085373791382329E-006
 chl          39   1.5795798718919329E-010   3.3543053462087258E-010  0.47091117500000002     
 chl2c          40  0.66875547499999999        3.7687445774703773E-002  0.66875547499999999        0.0000000000000000        4.6586340887800425E-006
 chl          40   2.2440377579485629E-010   3.3555430076270599E-010  0.66875547499999999     
 chl2c          41  0.44304987499999998        2.5582381488167241E-002  0.44304987499999998        0.0000000000000000        5.3742533647783535E-016
 chl          41   1.4861245643496076E-010   3.3543053462087258E-010  0.44304987499999998     
 chl2c          42  0.76234377499999995        3.7949995630725070E-002  0.76234377499999995        0.0000000000000000        3.7002727338543645E-006
 chl          42   2.5580773235953543E-010   3.3555430076088107E-010  0.76234377499999995     
 chl2c          43  0.29539925000000000        2.1185090152268007E-002  0.29539925000000000        0.0000000000000000        5.4365999715164212E-016
 chl          43   9.9085928354104794E-011   3.3543053462087258E-010  0.29539925000000000     
 chl2c          44  0.62417262500000004        3.7536352708156646E-002  0.62417262500000004        0.0000000000000000        7.5523769448361648E-006
 chl          44   2.0944380873595865E-010   3.3555430076088107E-010  0.62417262500000004     
 chl2c          45  0.37662252499999999        4.6544927192009838E-002  0.37662252499999999        0.0000000000000000        5.3845863930860546E-020
 chl          45   1.2633069491101293E-010   3.3543053462087258E-010  0.37662252499999999     
 chl2c          46  0.51876034999999998        3.7083195475449568E-002  0.51876034999999998        0.0000000000000000        9.3633168649851432E-016
 chl          46   1.7407226650671994E-010   3.3555430076088107E-010  0.51876034999999998     
 chl2c          47  0.61962282499999999        3.7519784612651236E-002  0.61962282499999999        0.0000000000000000        8.0414662003748470E-006
 chl          47   2.0791710377835677E-010   3.3555430076088107E-010  0.61962282499999999     
 chl2c          48  0.71424949999999998        3.7823212136301673E-002  0.71424949999999998        0.0000000000000000        5.6003382807923226E-006
 chl          48   2.3966949154130891E-010   3.3555430076088107E-010  0.71424949999999998     
 chl2c          49  0.53276120000000005        3.7152990741888416E-002  0.53276120000000005        0.0000000000000000        8.0118093249650996E-006
 chl          49   1.7877031193852794E-010   3.3555430076088107E-010  0.53276120000000005     
 chl2c          50  0.38132569999999999        2.1533072915600981E-002  0.38132569999999999        0.0000000000000000        5.4081525386036898E-016
 chl          50   1.2790828341567847E-010   3.3543053462087258E-010  0.38132569999999999     
 chl2c          51  0.22275920000000002        2.0700971146093840E-002  0.22275920000000002        0.0000000000000000        3.9520823526311066E-006
 chl          51   7.4720237547717878E-011   3.3543053462087258E-010  0.22275920000000002     
 chl2c          52  0.63698869999999996        3.7581825176985564E-002  0.63698869999999996        0.0000000000000000        6.0450039466178583E-006
 chl          52   2.1374429782224508E-010   3.3555430076270599E-010  0.63698869999999996     
 chl2c          53  0.75269794999999995        3.7925801262726190E-002  0.75269794999999995        0.0000000000000000        2.8829859967076064E-006
 chl          53   2.5257103429777220E-010   3.3555430076270599E-010  0.75269794999999995     
 chl2c          54  0.51861124999999997        3.7082433371327092E-002  0.51861124999999997        0.0000000000000000        7.9712491139706953E-006
 chl          54   1.7402223536047648E-010   3.3555430076088107E-010  0.51861124999999997     
 chl2c          55  0.57808280000000001        3.7357235588660491E-002  0.57808280000000001        0.0000000000000000        9.3785018340091604E-016
 chl          55   1.9397816973589227E-010   3.3555430076088107E-010  0.57808280000000001     
 chl2c          56  0.61626080000000005        3.7507394187257688E-002  0.61626080000000005        0.0000000000000000        5.7959972479773303E-006
 chl          56   2.0678896183146583E-010   3.3555430076270599E-010  0.61626080000000005     
 chl2c          57  0.68163462500000005        3.7727617852646313E-002  0.68163462500000005        0.0000000000000000        9.3832749251821525E-016
 chl          57   2.2872542996628040E-010   3.3555430076088107E-010  0.68163462500000005     
 chl2c          58  0.69416802499999997        3.7765358178394853E-002  0.69416802499999997        0.0000000000000000        9.3738648207023792E-016
 chl          58   2.3293106624070359E-010   3.3555430076270599E-010  0.69416802499999997     
 chl2c          59  0.53705127500000005        3.7173699120809672E-002  0.53705127500000005        0.0000000000000000        9.3909806524805038E-016
 chl          59   1.8020986505536466E-010   3.3555430076088107E-010  0.53705127500000005     
 chl2c          60  0.64452155000000000        3.7607757740906807E-002  0.64452155000000000        0.0000000000000000        9.2749755369557297E-016
 chl          60   2.1627197803556924E-010   3.3555430076088107E-010  0.64452155000000000     
 chl2c          61  0.70794139999999994        3.7805373434125003E-002  0.70794139999999994        0.0000000000000000        7.3485683209075633E-006
 chl          61   2.3755278145667917E-010   3.3555430076088107E-010  0.70794139999999994     
 chl2c          62  0.76481592499999995        3.7956103087269030E-002  0.76481592499999995        0.0000000000000000        5.3986246812964009E-006
 chl          62   2.5663727292416142E-010   3.3555430076088107E-010  0.76481592499999995     
 chl2c          63  0.72597904999999996        3.7855601011927406E-002  0.72597904999999996        0.0000000000000000        9.2795586450588312E-016
 chl          63   2.4360539249112358E-010   3.3555430076270599E-010  0.72597904999999996     
 chl2c          64  0.48435739999999999        2.5708982294816416E-002  0.48435739999999999        0.0000000000000000        4.3704491194957122E-006
 chl          64   1.6246826162957583E-010   3.3543053462087258E-010  0.48435739999999999     
 chl2c          65  0.76379975000000000        3.7953597170552002E-002  0.76379975000000000        0.0000000000000000        9.3121357234422339E-016
 chl          65   2.5629629103397964E-010   3.3555430076270599E-010  0.76379975000000000     
 chl2c          66  0.35213202499999996        3.1840477731474713E-002  0.35213202499999996        0.0000000000000000        3.4069562615702806E-010
 chl          66   1.1811583340288046E-010   3.3543053462087258E-010  0.35213202499999996     
 chl2c          67  0.75736760000000003        3.7937587124568600E-002  0.75736760000000003        0.0000000000000000        8.0101996952052905E-006
 chl          67   2.5413795543694668E-010   3.3555430076088107E-010  0.75736760000000003     
 chl2c          68  0.72590779999999999        3.7855407263856986E-002  0.72590779999999999        0.0000000000000000        9.3841762853436547E-016
 chl          68   2.4358148424719424E-010   3.3555430076270599E-010  0.72590779999999999     
 chl2c          69  0.45524217500000003        2.1732330561541505E-002  0.45524217500000003        0.0000000000000000        5.3964169758559577E-016
 chl          69   1.5270212614221884E-010   3.3543053462087258E-010  0.45524217500000003     
 chl2c          70  0.48694062500000002        3.2658010878182209E-002  0.48694062500000002        0.0000000000000000        5.0618888073376986E-009
 chl          70   1.6333475417237184E-010   3.3543053462087258E-010  0.48694062500000002     
 chl2c          71  0.23986107500000001        4.3481058864416305E-002  0.23986107500000001        0.0000000000000000        4.9517885069085168E-020
 chl          71   8.0456728621987215E-011   3.3543053462087258E-010  0.23986107500000001     
 chl2c          72  0.62790522500000001        3.7549776402781669E-002  0.62790522500000001        0.0000000000000000        6.7166934285599598E-006
 chl          72   2.1069629872012457E-010   3.3555430076270599E-010  0.62790522500000001     
 chl2c          73  0.35362212500000001        3.1852614277819484E-002  0.35362212500000001        0.0000000000000000        2.9813511287142225E-010
 chl          73   1.1861565844251902E-010   3.3543053462087258E-010  0.35362212500000001     
 chl2c          74  0.64719590000000005        3.7616827685877569E-002  0.64719590000000005        0.0000000000000000        9.3433105405168028E-016
 chl          74   2.1716936767980912E-010   3.3555430076088107E-010  0.64719590000000005     
 chl2c          75  0.71554212500000003        3.7826830779512356E-002  0.71554212500000003        0.0000000000000000        6.7164024923315489E-006
 chl          75   2.4010323742063577E-010   3.3555430076270599E-010  0.71554212500000003     
 chl2c          76  0.55513977500000000        3.7257729557919804E-002  0.55513977500000000        0.0000000000000000        9.3441787708294393E-016
 chl          76   1.8627953902569094E-010   3.3555430076270599E-010  0.55513977500000000     
 chl2c          77  0.52973029999999999        3.7138172437479272E-002  0.52973029999999999        0.0000000000000000        9.2657696500533045E-016
 chl          77   1.7775328040835176E-010   3.3555430076088107E-010  0.52973029999999999     
 chl2c          78  0.45117492500000000        4.7515248899399322E-002  0.45117492500000000        0.0000000000000000        6.1227197870424631E-019
 chl          78   1.5133784630028210E-010   3.3543053462087258E-010  0.45117492500000000     
 prod   2.0093097972408803E-010   0.0000000000000000        10.000000000000000     
 dcdom   3.0116241886579972E-013  -1.0194383720235355E-015
 chl2c           1  0.60826437499999997        3.7477407714772232E-002  0.60826437499999997        0.0000000000000000        9.3573064626855500E-016
 chl           1   2.0402953148288283E-010   3.3542903360546612E-010  0.60826437499999997     
 chl2c           2  0.48302390000000001        3.2640259920490348E-002  0.48302390000000001        0.0000000000000000        4.0968917960210062E-020
 chl           2   1.6202023835424671E-010   3.3542903022862163E-010  0.48302390000000001     
 chl2c           3  0.75128689999999998        3.7922212503796585E-002  0.75128689999999998        0.0000000000000000        7.3531455488177591E-006
 chl           3   2.5200343882744644E-010   3.3542903360546612E-010  0.75128689999999998     
 chl2c           4  0.77318742499999993        3.7976509103863923E-002  0.77318742499999993        0.0000000000000000        9.3841762548638423E-016
 chl           4   2.5934951076364878E-010   3.3542903360546612E-010  0.77318742499999993     
 chl2c           5  0.48489679999999996        2.5710500362372445E-002  0.48489679999999996        0.0000000000000000        5.3956938707535718E-016
 chl           5   1.6264846338496187E-010   3.3542903022862163E-010  0.48489679999999996     
 chl2c           6  0.29222855000000003        3.1261039902252048E-002  0.29222855000000003        0.0000000000000000        6.3849682469696251E-019
 chl           6   9.8021939131616277E-011   3.3542903022862163E-010  0.29222855000000003     
 chl2c           7  0.22770740000000000        4.3064391842467263E-002  0.22770740000000000        0.0000000000000000        3.9976914706185638E-020
 chl           7   7.6379672357880833E-011   3.3542903022862163E-010  0.22770740000000000     
 chl2c           8  0.49578364999999996        4.7969800906495587E-002  0.49578364999999996        0.0000000000000000        4.2478128960053354E-020
 chl           8   1.6630022892270636E-010   3.3542903022862163E-010  0.49578364999999996     
 chl2c           9  0.28700202499999999        2.4803669054600401E-002  0.28700202499999999        0.0000000000000000        5.4184060478482175E-016
 chl           9   9.6268810919400619E-011   3.3542903022862163E-010  0.28700202499999999     
 chl2c          10  0.39094662499999999        2.5387016219684602E-002  0.39094662499999999        0.0000000000000000        5.4184846842835104E-016
 chl          10   1.3113484729490261E-010   3.3542903022862163E-010  0.39094662499999999     
 chl2c          11  0.49737575000000001        2.1820572217820047E-002  0.49737575000000001        0.0000000000000000        4.5798995580691122E-006
 chl          11   1.6683426548173335E-010   3.3542903022862163E-010  0.49737575000000001     
 chl2c          12  0.30768942500000002        4.5290941298723353E-002  0.30768942500000002        0.0000000000000000        1.6047667191785111E-010
 chl          12   1.0320796543935221E-010   3.3542903022862163E-010  0.30768942500000002     
 chl2c          13  0.75666275000000005        3.7935816987997487E-002  0.75666275000000005        0.0000000000000000        6.6762278636815893E-006
 chl          13   2.5380665499637691E-010   3.3542903360364560E-010  0.75666275000000005     
 chl2c          14  0.39804095000000000        4.6856526101924839E-002  0.39804095000000000        0.0000000000000000        1.2539844887589594E-009
 chl          14   1.3351448984977928E-010   3.3542903022862163E-010  0.39804095000000000     
 chl2c          15  0.25607262500000000        2.0954299823745293E-002  0.25607262500000000        0.0000000000000000        5.4323440909337454E-016
 chl          15   8.5894192271847483E-011   3.3542903022862163E-010  0.25607262500000000     
 chl2c          16  0.71433214999999994        3.7823443882273475E-002  0.71433214999999994        0.0000000000000000        4.6387978904772786E-006
 chl          16   2.3960774274781487E-010   3.3542903360546612E-010  0.71433214999999994     
 chl2c          17  0.62580860000000005        3.7542254757581245E-002  0.62580860000000005        0.0000000000000000        8.0532650434670175E-006
 chl          17   2.0991437391998972E-010   3.3542903360546612E-010  0.62580860000000005     
 chl2c          18  0.47925950000000000        2.5694475239060960E-002  0.47925950000000000        0.0000000000000000        2.0206836974165276E-006
 chl          18   1.6075754931285408E-010   3.3542903022862163E-010  0.47925950000000000     
 chl2c          19  0.63367130000000005        3.7570220750293731E-002  0.63367130000000005        0.0000000000000000        9.2840726243666801E-016
 chl          19   2.1255175178251941E-010   3.3542903360546612E-010  0.63367130000000005     
 chl2c          20  0.50678202500000002        3.7020645196759419E-002  0.50678202500000002        0.0000000000000000        7.4097060027608973E-006
 chl          20   1.6998940489344858E-010   3.3542903360364560E-010  0.50678202500000002     
 chl2c          21  0.71973185000000006        3.7838475073783531E-002  0.71973185000000006        0.0000000000000000        9.3329204647357645E-016
 chl          21   2.4141895889926404E-010   3.3542903360364560E-010  0.71973185000000006     
 chl2c          22  0.64616892500000001        3.7613353106285476E-002  0.64616892500000001        0.0000000000000000        9.3808823856890075E-016
 chl          22   2.1674381805863293E-010   3.3542903360546612E-010  0.64616892500000001     
 chl2c          23  0.41564179999999995        3.2286562315070731E-002  0.41564179999999995        0.0000000000000000        5.8482228681682175E-020
 chl          23   1.3941832589647868E-010   3.3542903022862163E-010  0.41564179999999995     
 chl2c          24  0.57597492500000003        3.7348402796863071E-002  0.57597492500000003        0.0000000000000000        6.3264336330917680E-006
 chl          24   1.9319871247268228E-010   3.3542903360364560E-010  0.57597492500000003     
 chl2c          25  0.31406487500000002        4.5426679235459781E-002  0.31406487500000002        0.0000000000000000        4.4543078074987398E-020
 chl          25   1.0534647645012328E-010   3.3542903022862163E-010  0.31406487500000002     
 chl2c          26  0.49427735000000000        4.7955660680174553E-002  0.49427735000000000        0.0000000000000000        3.4691229172869210E-010
 chl          26   1.6579497217447300E-010   3.3542903022862163E-010  0.49427735000000000     
 chl2c          27  0.30964730000000001        4.5333133499525620E-002  0.30964730000000001        0.0000000000000000        4.1389283344556478E-009
 chl          27   1.0386469355191108E-010   3.3542903022862163E-010  0.30964730000000001     
 chl2c          28  0.28776342500000002        3.1209236063453518E-002  0.28776342500000002        0.0000000000000000        4.0913092134165231E-009
 chl          28   9.6524206583016701E-011   3.3542903022862163E-010  0.28776342500000002     
 chl2c          29  0.68676297499999994        3.7743217595736761E-002  0.68676297499999994        0.0000000000000000        9.3416870020069705E-016
 chl          29   2.3036024101901460E-010   3.3542903360364560E-010  0.68676297499999994     
 chl2c          30  0.38930277499999999        2.5380056985171612E-002  0.38930277499999999        0.0000000000000000        4.6645642182139171E-006
 chl          30   1.3058345228356127E-010   3.3542903022862163E-010  0.38930277499999999     
 chl2c          31  0.63559385000000002        3.7576959810037038E-002  0.63559385000000002        0.0000000000000000        9.3635861117255728E-016
 chl          31   2.1319663086992050E-010   3.3542903360364560E-010  0.63559385000000002     
 chl2c          32  0.24722667500000001        2.0893126428578448E-002  0.24722667500000001        0.0000000000000000        5.4365791595215168E-016
 chl          32   8.2927003841896621E-011   3.3542903022862163E-010  0.24722667500000001     
 chl2c          33  0.60343137499999999        3.7458922634011876E-002  0.60343137499999999        0.0000000000000000        9.2987444876601984E-016
 chl          33   2.0240840296236906E-010   3.3542903360364560E-010  0.60343137499999999     
 chl2c          34  0.38241020000000003        2.5350269098008315E-002  0.38241020000000003        0.0000000000000000        5.3925588787272757E-016
 chl          34   1.2827148253553325E-010   3.3542903022862163E-010  0.38241020000000003     
 chl2c          35  0.49574644999999995        2.5740370148566064E-002  0.49574644999999995        0.0000000000000000        4.1662000120036216E-006
 chl          35   1.6628775096278184E-010   3.3542903022862163E-010  0.49574644999999995     
 chl2c          36  0.69587337500000002        3.7770393924465726E-002  0.69587337500000002        0.0000000000000000        6.4219337935738711E-006
 chl          36   2.3341613368802414E-010   3.3542903360546612E-010  0.69587337500000002     
 chl2c          37  0.33194060000000003        2.1353674699533250E-002  0.33194060000000003        0.0000000000000000        9.1431411937276708E-007
 chl          37   1.1134251355150681E-010   3.3542903022862163E-010  0.33194060000000003     
 chl2c          38  0.38455722500000000        2.1543295686358745E-002  0.38455722500000000        0.0000000000000000        3.7942080122737753E-006
 chl          38   1.2899165704915984E-010   3.3542903022862163E-010  0.38455722500000000     
 chl2c          39  0.47091117500000002        2.5670077108751441E-002  0.47091117500000002        0.0000000000000000        2.8085478851738860E-006
 chl          39   1.5795727875407073E-010   3.3542903022862163E-010  0.47091117500000002     
 chl2c          40  0.66875547499999999        3.7687445774703773E-002  0.66875547499999999        0.0000000000000000        4.6586158098905042E-006
 chl          40   2.2432000269761445E-010   3.3542903360546612E-010  0.66875547499999999     
 chl2c          41  0.44304987499999998        2.5582381488167241E-002  0.44304987499999998        0.0000000000000000        5.3742533647783535E-016
 chl          41   1.4861178991416202E-010   3.3542903022862163E-010  0.44304987499999998     
 chl2c          42  0.76234377499999995        3.7949995630725070E-002  0.76234377499999995        0.0000000000000000        3.7002532845655104E-006
 chl          42   2.5571223572200503E-010   3.3542903360364560E-010  0.76234377499999995     
 chl2c          43  0.29539925000000000        2.1185090152268007E-002  0.29539925000000000        0.0000000000000000        5.4365999715164212E-016
 chl          43   9.9085483957762162E-011   3.3542903022862163E-010  0.29539925000000000     
 chl2c          44  0.62417262500000004        3.7536352708156646E-002  0.62417262500000004        0.0000000000000000        7.5523694784716342E-006
 chl          44   2.0936562040560070E-010   3.3542903360364560E-010  0.62417262500000004     
 chl2c          45  0.37662252499999999        4.6544927192009838E-002  0.37662252499999999        0.0000000000000000        5.3845738245389171E-020
 chl          45   1.2633012832300479E-010   3.3542903022862163E-010  0.37662252499999999     
 chl2c          46  0.51876034999999998        3.7083195475449568E-002  0.51876034999999998        0.0000000000000000        9.3633168649851452E-016
 chl          46   1.7400728287238895E-010   3.3542903360364560E-010  0.51876034999999998     
 chl2c          47  0.61962282499999999        3.7519784612651236E-002  0.61962282499999999        0.0000000000000000        8.0414626315060171E-006
 chl          47   2.0783948538851082E-010   3.3542903360364560E-010  0.61962282499999999     
 chl2c          48  0.71424949999999998        3.7823212136301673E-002  0.71424949999999998        0.0000000000000000        5.6003222327231583E-006
 chl          48   2.3958001953688706E-010   3.3542903360364560E-010  0.71424949999999998     
 chl2c          49  0.53276120000000005        3.7152990741888416E-002  0.53276120000000005        0.0000000000000000        8.0118057680593769E-006
 chl          49   1.7870357445751858E-010   3.3542903360364560E-010  0.53276120000000005     
 chl2c          50  0.38132569999999999        2.1533072915600981E-002  0.38132569999999999        0.0000000000000000        5.4081525386036898E-016
 chl          50   1.2790770975225029E-010   3.3542903022862163E-010  0.38132569999999999     
 chl2c          51  0.22275920000000002        2.0700971146093840E-002  0.22275920000000002        0.0000000000000000        3.9520873606078153E-006
 chl          51   7.4719902430503574E-011   3.3542903022862163E-010  0.22275920000000002     
 chl2c          52  0.63698869999999996        3.7581825176985564E-002  0.63698869999999996        0.0000000000000000        6.0449891134867411E-006
 chl          52   2.1366450405860216E-010   3.3542903360546612E-010  0.63698869999999996     
 chl2c          53  0.75269794999999995        3.7925801262726190E-002  0.75269794999999995        0.0000000000000000        2.8829660605450618E-006
 chl          53   2.5247674596531545E-010   3.3542903360546612E-010  0.75269794999999995     
 chl2c          54  0.51861124999999997        3.7082433371327092E-002  0.51861124999999997        0.0000000000000000        7.9712455750279104E-006
 chl          54   1.7395727040347864E-010   3.3542903360364560E-010  0.51861124999999997     
 chl2c          55  0.57808280000000001        3.7357235588660491E-002  0.57808280000000001        0.0000000000000000        9.3785018340091604E-016
 chl          55   1.9390575494688954E-010   3.3542903360364560E-010  0.57808280000000001     
 chl2c          56  0.61626080000000005        3.7507394187257688E-002  0.61626080000000005        0.0000000000000000        5.7960071492729314E-006
 chl          56   2.0671176459293145E-010   3.3542903360546612E-010  0.61626080000000005     
 chl2c          57  0.68163462500000005        3.7727617852646313E-002  0.68163462500000005        0.0000000000000000        9.3832749251821525E-016
 chl          57   2.2864004353453340E-010   3.3542903360364560E-010  0.68163462500000005     
 chl2c          58  0.69416802499999997        3.7765358178394853E-002  0.69416802499999997        0.0000000000000000        9.3738648207023792E-016
 chl          58   2.3284410978556506E-010   3.3542903360546612E-010  0.69416802499999997     
 chl2c          59  0.53705127500000005        3.7173699120809672E-002  0.53705127500000005        0.0000000000000000        9.3909806524805038E-016
 chl          59   1.8014259016885573E-010   3.3542903360364560E-010  0.53705127500000005     
 chl2c          60  0.64452155000000000        3.7607757740906807E-002  0.64452155000000000        0.0000000000000000        9.2749755369557297E-016
 chl          60   2.1619124065322375E-010   3.3542903360364560E-010  0.64452155000000000     
 chl2c          61  0.70794139999999994        3.7805373434125003E-002  0.70794139999999994        0.0000000000000000        7.3485707078021639E-006
 chl          61   2.3746409965001191E-010   3.3542903360364560E-010  0.70794139999999994     
 chl2c          62  0.76481592499999995        3.7956103087269030E-002  0.76481592499999995        0.0000000000000000        5.3986083596992848E-006
 chl          62   2.5654146660742828E-010   3.3542903360364560E-010  0.76481592499999995     
 chl2c          63  0.72597904999999996        3.7855601011927406E-002  0.72597904999999996        0.0000000000000000        9.2795586450588312E-016
 chl          63   2.4351445115931435E-010   3.3542903360546612E-010  0.72597904999999996     
 chl2c          64  0.48435739999999999        2.5708982294816416E-002  0.48435739999999999        0.0000000000000000        4.3704502985569570E-006
 chl          64   1.6246753296605657E-010   3.3542903022862163E-010  0.48435739999999999     
 chl2c          65  0.76379975000000000        3.7953597170552002E-002  0.76379975000000000        0.0000000000000000        9.3121357234422339E-016
 chl          65   2.5620061201059662E-010   3.3542903360546612E-010  0.76379975000000000     
 chl2c          66  0.35213202499999996        3.1840477731474713E-002  0.35213202499999996        0.0000000000000000        3.4069509986710202E-010
 chl          66   1.1811530365819073E-010   3.3542903022862163E-010  0.35213202499999996     
 chl2c          67  0.75736760000000003        3.7937587124568600E-002  0.75736760000000003        0.0000000000000000        8.0101961389885884E-006
 chl          67   2.5404308215071245E-010   3.3542903360364560E-010  0.75736760000000003     
 chl2c          68  0.72590779999999999        3.7855407263856986E-002  0.72590779999999999        0.0000000000000000        9.3841762548638423E-016
 chl          68   2.4349055184066998E-010   3.3542903360546612E-010  0.72590779999999999     
 chl2c          69  0.45524217500000003        2.1732330561541505E-002  0.45524217500000003        0.0000000000000000        5.3964169758559577E-016
 chl          69   1.5270144127941846E-010   3.3542903022862163E-010  0.45524217500000003     
 chl2c          70  0.48694062500000002        3.2658010878182209E-002  0.48694062500000002        0.0000000000000000        5.0618726449079837E-009
 chl          70   1.6333402162266892E-010   3.3542903022862163E-010  0.48694062500000002     
 chl2c          71  0.23986107500000001        4.3481058864416305E-002  0.23986107500000001        0.0000000000000000        4.9517769484950209E-020
 chl          71   8.0456367776844684E-011   3.3542903022862163E-010  0.23986107500000001     
 chl2c          72  0.62790522500000001        3.7549776402781669E-002  0.62790522500000001        0.0000000000000000        6.7166810825171418E-006
 chl          72   2.1061764281757277E-010   3.3542903360546612E-010  0.62790522500000001     
 chl2c          73  0.35362212500000001        3.1852614277819484E-002  0.35362212500000001        0.0000000000000000        2.9813546110965174E-010
 chl          73   1.1861512645613442E-010   3.3542903022862163E-010  0.35362212500000001     
 chl2c          74  0.64719590000000005        3.7616827685877569E-002  0.64719590000000005        0.0000000000000000        9.3433105405168028E-016
 chl          74   2.1708829528924167E-010   3.3542903360364560E-010  0.64719590000000005     
 chl2c          75  0.71554212500000003        3.7826830779512356E-002  0.71554212500000003        0.0000000000000000        6.7164082514989390E-006
 chl          75   2.4001360349275167E-010   3.3542903360546612E-010  0.71554212500000003     
 chl2c          76  0.55513977500000000        3.7257729557919804E-002  0.55513977500000000        0.0000000000000000        9.3441787708294393E-016
 chl          76   1.8620999824420590E-010   3.3542903360546612E-010  0.55513977500000000     
 chl2c          77  0.52973029999999999        3.7138172437479272E-002  0.52973029999999999        0.0000000000000000        9.2657696500533045E-016
 chl          77   1.7768692259956926E-010   3.3542903360364560E-010  0.52973029999999999     
 chl2c          78  0.45117492500000000        4.7515248899399322E-002  0.45117492500000000        0.0000000000000000        6.1227037771382088E-019
 chl          78   1.5133716755622110E-010   3.3542903022862163E-010  0.45117492500000000     
 prod   2.0093051067093211E-010   0.0000000000000000        10.000000000000000     
 dcdom   3.0012068388332249E-013  -1.0193255798082208E-015
 chl2c           1  0.60826437499999997        3.7477407714772232E-002  0.60826437499999997        0.0000000000000000        9.3244003039864555E-016
 chl           1   2.1479154385172957E-014   3.5312201845082509E-014  0.60826437499999997     
 chl2c           2  0.48302390000000001        3.2640259920490348E-002  0.48302390000000001        0.0000000000000000        9.4881929745647937E-021
 chl           2   1.0936840724067555E-016   2.2642442173291124E-016  0.48302390000000001     
 chl2c           3  0.75128689999999998        3.7922212503796585E-002  0.75128689999999998        0.0000000000000000        7.3792148327960297E-006
 chl           3   2.6529594656366316E-014   3.5312201845082509E-014  0.75128689999999998     
 chl2c           4  0.77318742499999993        3.7976509103863923E-002  0.77318742499999993        0.0000000000000000        9.3244003039864555E-016
 chl           4   2.7302950415679592E-014   3.5312201845082509E-014  0.77318742499999993     
 chl2c           5  0.48489679999999996        2.5710500362372445E-002  0.48489679999999996        0.0000000000000000        5.3956938707509705E-016
 chl           5   1.0979247754013911E-016   2.2642442173291124E-016  0.48489679999999996     
 chl2c           6  0.29222855000000003        3.1261039902252048E-002  0.29222855000000003        0.0000000000000000        1.3917659355464028E-019
 chl           6   6.6167680447597148E-017   2.2642442173291124E-016  0.29222855000000003     
 chl2c           7  0.22770740000000000        4.3064391842467263E-002  0.22770740000000000        0.0000000000000000        9.2584372618550767E-021
 chl           7   5.1558516369304712E-017   2.2642442173291124E-016  0.22770740000000000     
 chl2c           8  0.49578364999999996        4.7969800906495587E-002  0.49578364999999996        0.0000000000000000        9.8377392656304988E-021
 chl           8   1.1225752625588204E-016   2.2642442173291124E-016  0.49578364999999996     
 chl2c           9  0.28700202499999999        2.4803669054600401E-002  0.28700202499999999        0.0000000000000000        5.4184060478461182E-016
 chl           9   6.4984267546799537E-017   2.2642442173291124E-016  0.28700202499999999     
 chl2c          10  0.39094662499999999        2.5387016219684602E-002  0.39094662499999999        0.0000000000000000        5.4184846842814130E-016
 chl          10   8.8519863494058301E-017   2.2642442173291124E-016  0.39094662499999999     
 chl2c          11  0.49737575000000001        2.1820572217820047E-002  0.49737575000000001        0.0000000000000000        4.5421915343563386E-006
 chl          11   1.1261801657772302E-016   2.2642442173291124E-016  0.49737575000000001     
 chl2c          12  0.30768942500000002        4.5290941298723353E-002  0.30768942500000002        0.0000000000000000        2.7011702173606055E-011
 chl          12   6.9668400128956964E-017   2.2642442173291124E-016  0.30768942500000002     
 chl2c          13  0.75666275000000005        3.7935816987997487E-002  0.75666275000000005        0.0000000000000000        6.1927206564087878E-006
 chl          13   2.6719427756618353E-014   3.5312201845033801E-014  0.75666275000000005     
 chl2c          14  0.39804095000000000        4.6856526101924839E-002  0.39804095000000000        0.0000000000000000        3.6850962151523282E-010
 chl          14   9.0126191929768633E-017   2.2642442173291124E-016  0.39804095000000000     
 chl2c          15  0.25607262500000000        2.0954299823745293E-002  0.25607262500000000        0.0000000000000000        5.4323440909319556E-016
 chl          15   5.7981096037253626E-017   2.2642442173291124E-016  0.25607262500000000     
 chl2c          16  0.71433214999999994        3.7823443882273475E-002  0.71433214999999994        0.0000000000000000        3.9126582006986919E-006
 chl          16   2.5224641065231753E-014   3.5312201845082509E-014  0.71433214999999994     
 chl2c          17  0.62580860000000005        3.7542254757581245E-002  0.62580860000000005        0.0000000000000000        7.8712421955090278E-006
 chl          17   2.2098679599588505E-014   3.5312201845082509E-014  0.62580860000000005     
 chl2c          18  0.47925950000000000        2.5694475239060960E-002  0.47925950000000000        0.0000000000000000        2.4706918847208006E-006
 chl          18   1.0851605514750418E-016   2.2642442173291124E-016  0.47925950000000000     
 chl2c          19  0.63367130000000005        3.7570220750293731E-002  0.63367130000000005        0.0000000000000000        9.2840726243587087E-016
 chl          19   2.2376328849035834E-014   3.5312201845082509E-014  0.63367130000000005     
 chl2c          20  0.50678202500000002        3.7020645196759419E-002  0.50678202500000002        0.0000000000000000        7.0600276570410930E-006
 chl          20   1.7895589158234968E-014   3.5312201845033801E-014  0.50678202500000002     
 chl2c          21  0.71973185000000006        3.7838475073783531E-002  0.71973185000000006        0.0000000000000000        9.3329204647288363E-016
 chl          21   2.5415316361499594E-014   3.5312201845033801E-014  0.71973185000000006     
 chl2c          22  0.64616892500000001        3.7613353106285476E-002  0.64616892500000001        0.0000000000000000        9.3244003039864555E-016
 chl          22   2.2817647505619982E-014   3.5312201845082509E-014  0.64616892500000001     
 chl2c          23  0.41564179999999995        3.2286562315070731E-002  0.41564179999999995        0.0000000000000000        1.3544517381020164E-020
 chl          23   9.4111454213026333E-017   2.2642442173291124E-016  0.41564179999999995     
 chl2c          24  0.57597492500000003        3.7348402796863071E-002  0.57597492500000003        0.0000000000000000        6.5729428387696132E-006
 chl          24   2.0338942809278206E-014   3.5312201845033801E-014  0.57597492500000003     
 chl2c          25  0.31406487500000002        4.5426679235459781E-002  0.31406487500000002        0.0000000000000000        1.0316001683200836E-020
 chl          25   7.1111957708494055E-017   2.2642442173291124E-016  0.31406487500000002     
 chl2c          26  0.49427735000000000        4.7955660680174553E-002  0.49427735000000000        0.0000000000000000        7.8927073439091757E-011
 chl          26   1.1191646314942577E-016   2.2642442173291124E-016  0.49427735000000000     
 chl2c          27  0.30964730000000001        4.5333133499525620E-002  0.30964730000000001        0.0000000000000000        8.8706905118922064E-010
 chl          27   7.0111710843657286E-017   2.2642442173291124E-016  0.30964730000000001     
 chl2c          28  0.28776342500000002        3.1209236063453518E-002  0.28776342500000002        0.0000000000000000        8.7103630535596519E-010
 chl          28   6.5156667101506979E-017   2.2642442173291124E-016  0.28776342500000002     
 chl2c          29  0.68676297499999994        3.7743217595736761E-002  0.68676297499999994        0.0000000000000000        9.3416870020002297E-016
 chl          29   2.4251112792895900E-014   3.5312201845033801E-014  0.68676297499999994     
 chl2c          30  0.38930277499999999        2.5380056985171612E-002  0.38930277499999999        0.0000000000000000        4.5882845671994002E-006
 chl          30   8.8147655708392659E-017   2.2642442173291124E-016  0.38930277499999999     
 chl2c          31  0.63559385000000002        3.7576959810037038E-002  0.63559385000000002        0.0000000000000000        9.3635861117193013E-016
 chl          31   2.2444218322662139E-014   3.5312201845033801E-014  0.63559385000000002     
 chl2c          32  0.24722667500000001        2.0893126428578448E-002  0.24722667500000001        0.0000000000000000        5.4365791595198228E-016
 chl          32   5.5978156923825386E-017   2.2642442173291124E-016  0.24722667500000001     
 chl2c          33  0.60343137499999999        3.7458922634011876E-002  0.60343137499999999        0.0000000000000000        9.2987444876525366E-016
 chl          33   2.1308490513626285E-014   3.5312201845033801E-014  0.60343137499999999     
 chl2c          34  0.38241020000000003        2.5350269098008315E-002  0.38241020000000003        0.0000000000000000        5.3925588787246064E-016
 chl          34   8.6587008399766948E-017   2.2642442173291124E-016  0.38241020000000003     
 chl2c          35  0.49574644999999995        2.5740370148566064E-002  0.49574644999999995        0.0000000000000000        4.2585744169501564E-006
 chl          35   1.1224910326739360E-016   2.2642442173291124E-016  0.49574644999999995     
 chl2c          36  0.69587337500000002        3.7770393924465726E-002  0.69587337500000002        0.0000000000000000        6.6561146873732223E-006
 chl          36   2.4572821076618794E-014   3.5312201845082509E-014  0.69587337500000002     
 chl2c          37  0.33194060000000003        2.1353674699533250E-002  0.33194060000000003        0.0000000000000000        1.4073945479722484E-006
 chl          37   7.5159458404675605E-017   2.2642442173291124E-016  0.33194060000000003     
 chl2c          38  0.38455722500000000        2.1543295686358745E-002  0.38455722500000000        0.0000000000000000        3.9852063310164407E-006
 chl          38   8.7073147293838034E-017   2.2642442173291124E-016  0.38455722500000000     
 chl2c          39  0.47091117500000002        2.5670077108751441E-002  0.47091117500000002        0.0000000000000000        3.1703155688700982E-006
 chl          39   1.0662579048694078E-016   2.2642442173291124E-016  0.47091117500000002     
 chl2c          40  0.66875547499999999        3.7687445774703773E-002  0.66875547499999999        0.0000000000000000        3.9334891423578302E-006
 chl          40   2.3615228318204028E-014   3.5312201845082509E-014  0.66875547499999999     
 chl2c          41  0.44304987499999998        2.5582381488167241E-002  0.44304987499999998        0.0000000000000000        5.3742533647752838E-016
 chl          41   1.0031731174571361E-016   2.2642442173291124E-016  0.44304987499999998     
 chl2c          42  0.76234377499999995        3.7949995630725070E-002  0.76234377499999995        0.0000000000000000        2.9652319259907267E-006
 chl          42   2.6920037258105030E-014   3.5312201845033801E-014  0.76234377499999995     
 chl2c          43  0.29539925000000000        2.1185090152268007E-002  0.29539925000000000        0.0000000000000000        5.4365999715147272E-016
 chl          43   6.6885604361585682E-017   2.2642442173291124E-016  0.29539925000000000     
 chl2c          44  0.62417262500000004        3.7536352708156646E-002  0.62417262500000004        0.0000000000000000        7.2537112794394632E-006
 chl          44   2.2040909720144592E-014   3.5312201845033801E-014  0.62417262500000004     
 chl2c          45  0.37662252499999999        4.6544927192009838E-002  0.37662252499999999        0.0000000000000000        1.2470622942250050E-020
 chl          45   8.5276537434713906E-017   2.2642442173291124E-016  0.37662252499999999     
 chl2c          46  0.51876034999999998        3.7083195475449568E-002  0.51876034999999998        0.0000000000000000        9.3633168649788698E-016
 chl          46   1.8318570188400381E-014   3.5312201845033801E-014  0.51876034999999998     
 chl2c          47  0.61962282499999999        3.7519784612651236E-002  0.61962282499999999        0.0000000000000000        7.9082000848745478E-006
 chl          47   2.1880246264190057E-014   3.5312201845033801E-014  0.61962282499999999     
 chl2c          48  0.71424949999999998        3.7823212136301673E-002  0.71424949999999998        0.0000000000000000        4.9764680350161960E-006
 chl          48   2.5221722511714469E-014   3.5312201845033801E-014  0.71424949999999998     
 chl2c          49  0.53276120000000005        3.7152990741888416E-002  0.53276120000000005        0.0000000000000000        7.8790135625753574E-006
 chl          49   1.8812971029602424E-014   3.5312201845033801E-014  0.53276120000000005     
 chl2c          50  0.38132569999999999        2.1533072915600981E-002  0.38132569999999999        0.0000000000000000        5.4081525386013627E-016
 chl          50   8.6341451114397595E-017   2.2642442173291124E-016  0.38132569999999999     
 chl2c          51  0.22275920000000002        2.0700971146093840E-002  0.22275920000000002        0.0000000000000000        4.1079680301758497E-006
 chl          51   5.0438123045685926E-017   2.2642442173291124E-016  0.22275920000000002     
 chl2c          52  0.63698869999999996        3.7581825176985564E-002  0.63698869999999996        0.0000000000000000        5.4305381117535042E-006
 chl          52   2.2493473547436709E-014   3.5312201845082509E-014  0.63698869999999996     
 chl2c          53  0.75269794999999995        3.7925801262726190E-002  0.75269794999999995        0.0000000000000000        2.1323681515520477E-006
 chl          53   2.6579421938779820E-014   3.5312201845082509E-014  0.75269794999999995     
 chl2c          54  0.51861124999999997        3.7082433371327092E-002  0.51861124999999997        0.0000000000000000        7.8390781504548327E-006
 chl          54   1.8313305139105284E-014   3.5312201845033801E-014  0.51861124999999997     
 chl2c          55  0.57808280000000001        3.7357235588660491E-002  0.57808280000000001        0.0000000000000000        9.3785018340032144E-016
 chl          55   2.0413376516742307E-014   3.5312201845033801E-014  0.57808280000000001     
 chl2c          56  0.61626080000000005        3.7507394187257688E-002  0.61626080000000005        0.0000000000000000        6.0948001329628000E-006
 chl          56   2.1761525758812026E-014   3.5312201845082509E-014  0.61626080000000005     
 chl2c          57  0.68163462500000005        3.7727617852646313E-002  0.68163462500000005        0.0000000000000000        9.3832749251763091E-016
 chl          57   2.4070019462563926E-014   3.5312201845033801E-014  0.68163462500000005     
 chl2c          58  0.69416802499999997        3.7765358178394853E-002  0.69416802499999997        0.0000000000000000        9.3244003039864555E-016
 chl          58   2.4512601413202281E-014   3.5312201845082509E-014  0.69416802499999997     
 chl2c          59  0.53705127500000005        3.7173699120809672E-002  0.53705127500000005        0.0000000000000000        9.3909806524748279E-016
 chl          59   1.8964463023932759E-014   3.5312201845033801E-014  0.53705127500000005     
 chl2c          60  0.64452155000000000        3.7607757740906807E-002  0.64452155000000000        0.0000000000000000        9.2749755369475650E-016
 chl          60   2.2759475067074046E-014   3.5312201845033801E-014  0.64452155000000000     
 chl2c          61  0.70794139999999994        3.7805373434125003E-002  0.70794139999999994        0.0000000000000000        7.4132919907263331E-006
 chl          61   2.4998969611255811E-014   3.5312201845033801E-014  0.70794139999999994     
 chl2c          62  0.76481592499999995        3.7956103087269030E-002  0.76481592499999995        0.0000000000000000        4.7656085443326369E-006
 chl          62   2.7007334317896231E-014   3.5312201845033801E-014  0.76481592499999995     
 chl2c          63  0.72597904999999996        3.7855601011927406E-002  0.72597904999999996        0.0000000000000000        9.2795586450507631E-016
 chl          63   2.5635918748901246E-014   3.5312201845082509E-014  0.72597904999999996     
 chl2c          64  0.48435739999999999        2.5708982294816416E-002  0.48435739999999999        0.0000000000000000        4.3942794128521294E-006
 chl          64   1.0967034420705638E-016   2.2642442173291124E-016  0.48435739999999999     
 chl2c          65  0.76379975000000000        3.7953597170552002E-002  0.76379975000000000        0.0000000000000000        9.3121357234348600E-016
 chl          65   2.6971450941223559E-014   3.5312201845082509E-014  0.76379975000000000     
 chl2c          66  0.35213202499999996        3.1840477731474713E-002  0.35213202499999996        0.0000000000000000        8.0714050927561329E-011
 chl          66   7.9731290134264033E-017   2.2642442173291124E-016  0.35213202499999996     
 chl2c          67  0.75736760000000003        3.7937587124568600E-002  0.75736760000000003        0.0000000000000000        7.8774033753027417E-006
 chl          67   2.6744317562088822E-014   3.5312201845033801E-014  0.75736760000000003     
 chl2c          68  0.72590779999999999        3.7855407263856986E-002  0.72590779999999999        0.0000000000000000        9.3244003039864555E-016
 chl          68   2.5633402754519783E-014   3.5312201845082509E-014  0.72590779999999999     
 chl2c          69  0.45524217500000003        2.1732330561541505E-002  0.45524217500000003        0.0000000000000000        5.3964169758533731E-016
 chl          69   1.0307794622280780E-016   2.2642442173291124E-016  0.45524217500000003     
 chl2c          70  0.48694062500000002        3.2658010878182209E-002  0.48694062500000002        0.0000000000000000        1.0774695914034579E-009
 chl          70   1.1025524943388739E-016   2.2642442173291124E-016  0.48694062500000002     
 chl2c          71  0.23986107500000001        4.3481058864416305E-002  0.23986107500000001        0.0000000000000000        1.1468200193197238E-020
 chl          71   5.4310405203109456E-017   2.2642442173291124E-016  0.23986107500000001     
 chl2c          72  0.62790522500000001        3.7549776402781669E-002  0.62790522500000001        0.0000000000000000        6.1896771305632931E-006
 chl          72   2.2172716044781947E-014   3.5312201845082509E-014  0.62790522500000001     
 chl2c          73  0.35362212500000001        3.1852614277819484E-002  0.35362212500000001        0.0000000000000000        7.7332253138299100E-011
 chl          73   8.0068685165088264E-017   2.2642442173291124E-016  0.35362212500000001     
 chl2c          74  0.64719590000000005        3.7616827685877569E-002  0.64719590000000005        0.0000000000000000        9.3433105405100974E-016
 chl          74   2.2853912254078312E-014   3.5312201845033801E-014  0.64719590000000005     
 chl2c          75  0.71554212500000003        3.7826830779512356E-002  0.71554212500000003        0.0000000000000000        6.9012450688400158E-006
 chl          75   2.5267367946659261E-014   3.5312201845082509E-014  0.71554212500000003     
 chl2c          76  0.55513977500000000        3.7257729557919804E-002  0.55513977500000000        0.0000000000000000        9.3244003039864555E-016
 chl          76   1.9603207787033689E-014   3.5312201845082509E-014  0.55513977500000000     
 chl2c          77  0.52973029999999999        3.7138172437479272E-002  0.52973029999999999        0.0000000000000000        9.2657696500449445E-016
 chl          77   1.8705943277030309E-014   3.5312201845033801E-014  0.52973029999999999     
 chl2c          78  0.45117492500000000        4.7515248899399322E-002  0.45117492500000000        0.0000000000000000        1.3345570549558134E-019
 chl          78   1.0215702149351461E-016   2.2642442173291124E-016  0.45117492500000000     
 prod   4.6531826027134678E-011   0.0000000000000000        10.000000000000000     
 dcdom   7.0434424595888206E-014  -2.9231888171916561E-017
 chl2c           1  0.60826437499999997        3.7477407714772232E-002  0.60826437499999997        0.0000000000000000        9.3488744221230909E-016
 chl           1   5.7259421501275453E-019   9.4135747307698985E-019  0.60826437499999997     
 chl2c           2  0.48302390000000001        3.2640259920490348E-002  0.48302390000000001        0.0000000000000000        3.4970874509252414E-021
 chl           2   4.9352638320780875E-023   1.0217431957462327E-022  0.48302390000000001     
 chl2c           3  0.75128689999999998        3.7922212503796585E-002  0.75128689999999998        0.0000000000000000        7.4226763968229683E-006
 chl           3   7.0722953773984519E-019   9.4135747307698985E-019  0.75128689999999998     
 chl2c           4  0.77318742499999993        3.7976509103863923E-002  0.77318742499999993        0.0000000000000000        9.3488744221230909E-016
 chl           4   7.2784576061290456E-019   9.4135747307698985E-019  0.77318742499999993     
 chl2c           5  0.48489679999999996        2.5710500362372445E-002  0.48489679999999996        0.0000000000000000        5.3956938707506875E-016
 chl           5   4.9544000603912182E-023   1.0217431957462327E-022  0.48489679999999996     
 chl2c           6  0.29222855000000003        3.1261039902252048E-002  0.29222855000000003        0.0000000000000000        5.4063938317011312E-020
 chl           6   2.9858253256528780E-023   1.0217431957462327E-022  0.29222855000000003     
 chl2c           7  0.22770740000000000        4.3064391842467263E-002  0.22770740000000000        0.0000000000000000        3.4124049044705406E-021
 chl           7   2.3265848657106572E-023   1.0217431957462327E-022  0.22770740000000000     
 chl2c           8  0.49578364999999996        4.7969800906495587E-002  0.49578364999999996        0.0000000000000000        3.6259220697812750E-021
 chl           8   5.0656357094973168E-023   1.0217431957462327E-022  0.49578364999999996     
 chl2c           9  0.28700202499999999        2.4803669054600401E-002  0.28700202499999999        0.0000000000000000        5.4184060478458904E-016
 chl           9   2.9324236620914016E-023   1.0217431957462327E-022  0.28700202499999999     
 chl2c          10  0.39094662499999999        2.5387016219684602E-002  0.39094662499999999        0.0000000000000000        5.4184846842811842E-016
 chl          10   3.9944705399370399E-023   1.0217431957462327E-022  0.39094662499999999     
 chl2c          11  0.49737575000000001        2.1820572217820047E-002  0.49737575000000001        0.0000000000000000        4.4806818839411287E-006
 chl          11   5.0819028829167932E-023   1.0217431957462327E-022  0.49737575000000001     
 chl2c          12  0.30768942500000002        4.5290941298723353E-002  0.30768942500000002        0.0000000000000000        5.8633513880578849E-012
 chl          12   3.1437957639682080E-023   1.0217431957462327E-022  0.30768942500000002     
 chl2c          13  0.75666275000000005        3.7935816987997487E-002  0.75666275000000005        0.0000000000000000        5.6025648778169412E-006
 chl          13   7.1229013431146950E-019   9.4135747307696790E-019  0.75666275000000005     
 chl2c          14  0.39804095000000000        4.6856526101924839E-002  0.39804095000000000        0.0000000000000000        1.8081341413305212E-010
 chl          14   4.0669563229086643E-023   1.0217431957462327E-022  0.39804095000000000     
 chl2c          15  0.25607262500000000        2.0954299823745293E-002  0.25607262500000000        0.0000000000000000        5.4323440909317614E-016
 chl          15   2.6164046221062664E-023   1.0217431957462327E-022  0.25607262500000000     
 chl2c          16  0.71433214999999994        3.7823443882273475E-002  0.71433214999999994        0.0000000000000000        3.1287633374021965E-006
 chl          16   6.7244190766165319E-019   9.4135747307698985E-019  0.71433214999999994     
 chl2c          17  0.62580860000000005        3.7542254757581245E-002  0.62580860000000005        0.0000000000000000        7.7471905001621136E-006
 chl          17   5.8910960232584874E-019   9.4135747307698985E-019  0.62580860000000005     
 chl2c          18  0.47925950000000000        2.5694475239060960E-002  0.47925950000000000        0.0000000000000000        2.9037294928705378E-006
 chl          18   4.8968013312174158E-023   1.0217431957462327E-022  0.47925950000000000     
 chl2c          19  0.63367130000000005        3.7570220750293731E-002  0.63367130000000005        0.0000000000000000        9.2840726243578370E-016
 chl          19   5.9651121372941122E-019   9.4135747307698985E-019  0.63367130000000005     
 chl2c          20  0.50678202500000002        3.7020645196759419E-002  0.50678202500000002        0.0000000000000000        6.6221300662555474E-006
 chl          20   4.7706304645482878E-019   9.4135747307696790E-019  0.50678202500000002     
 chl2c          21  0.71973185000000006        3.7838475073783531E-002  0.71973185000000006        0.0000000000000000        9.3329204647280790E-016
 chl          21   6.7752495560901132E-019   9.4135747307696790E-019  0.71973185000000006     
 chl2c          22  0.64616892500000001        3.7613353106285476E-002  0.64616892500000001        0.0000000000000000        9.3488744221230909E-016
 chl          22   6.0827594641887494E-019   9.4135747307698985E-019  0.64616892500000001     
 chl2c          23  0.41564179999999995        3.2286562315070731E-002  0.41564179999999995        0.0000000000000000        4.9921604686627060E-021
 chl          23   4.2467918101771647E-023   1.0217431957462327E-022  0.41564179999999995     
 chl2c          24  0.57597492500000003        3.7348402796863071E-002  0.57597492500000003        0.0000000000000000        6.7715577661993729E-006
 chl          24   5.4219829995369611E-019   9.4135747307696790E-019  0.57597492500000003     
 chl2c          25  0.31406487500000002        4.5426679235459781E-002  0.31406487500000002        0.0000000000000000        3.8021986211092642E-021
 chl          25   3.2089364905414110E-023   1.0217431957462327E-022  0.31406487500000002     
 chl2c          26  0.49427735000000000        4.7955660680174553E-002  0.49427735000000000        0.0000000000000000        2.8464927527074441E-011
 chl          26   5.0502451917397916E-023   1.0217431957462327E-022  0.49427735000000000     
 chl2c          27  0.30964730000000001        4.5333133499525620E-002  0.30964730000000001        0.0000000000000000        3.3821756619842936E-010
 chl          27   3.1638002185619242E-023   1.0217431957462327E-022  0.30964730000000001     
 chl2c          28  0.28776342500000002        3.1209236063453518E-002  0.28776342500000002        0.0000000000000000        3.2777130398925335E-010
 chl          28   2.9402032147838139E-023   1.0217431957462327E-022  0.28776342500000002     
 chl2c          29  0.68676297499999994        3.7743217595736761E-002  0.68676297499999994        0.0000000000000000        9.3416870019994941E-016
 chl          29   6.4648945874882084E-019   9.4135747307696790E-019  0.68676297499999994     
 chl2c          30  0.38930277499999999        2.5380056985171612E-002  0.38930277499999999        0.0000000000000000        4.5039819400865444E-006
 chl          30   3.9776746144137656E-023   1.0217431957462327E-022  0.38930277499999999     
 chl2c          31  0.63559385000000002        3.7576959810037038E-002  0.63559385000000002        0.0000000000000000        9.3635861117186190E-016
 chl          31   5.9832102053926139E-019   9.4135747307696790E-019  0.63559385000000002     
 chl2c          32  0.24722667500000001        2.0893126428578448E-002  0.24722667500000001        0.0000000000000000        5.4365791595196374E-016
 chl          32   2.5260217298821524E-023   1.0217431957462327E-022  0.24722667500000001     
 chl2c          33  0.60343137499999999        3.7458922634011876E-002  0.60343137499999999        0.0000000000000000        9.2987444876517004E-016
 chl          33   5.6804463434536018E-019   9.4135747307696790E-019  0.60343137499999999     
 chl2c          34  0.38241020000000003        2.5350269098008315E-002  0.38241020000000003        0.0000000000000000        5.3925588787243155E-016
 chl          34   3.9072501983395602E-023   1.0217431957462327E-022  0.38241020000000003     
 chl2c          35  0.49574644999999995        2.5740370148566064E-002  0.49574644999999995        0.0000000000000000        4.3044660195510268E-006
 chl          35   5.0652556210284992E-023   1.0217431957462327E-022  0.49574644999999995     
 chl2c          36  0.69587337500000002        3.7770393924465726E-002  0.69587337500000002        0.0000000000000000        6.8419563726904975E-006
 chl          36   6.5506560187155661E-019   9.4135747307698985E-019  0.69587337500000002     
 chl2c          37  0.33194060000000003        2.1353674699533250E-002  0.33194060000000003        0.0000000000000000        1.9317700488925432E-006
 chl          37   3.3915804944192197E-023   1.0217431957462327E-022  0.33194060000000003     
 chl2c          38  0.38455722500000000        2.1543295686358745E-002  0.38455722500000000        0.0000000000000000        4.1233761137110912E-006
 chl          38   3.9291872801880304E-023   1.0217431957462327E-022  0.38455722500000000     
 chl2c          39  0.47091117500000002        2.5670077108751441E-002  0.47091117500000002        0.0000000000000000        3.4904063926678571E-006
 chl          39   4.8115028885711343E-023   1.0217431957462327E-022  0.47091117500000002     
 chl2c          40  0.66875547499999999        3.7687445774703773E-002  0.66875547499999999        0.0000000000000000        3.1504357018258696E-006
 chl          40   6.2953796405240207E-019   9.4135747307698985E-019  0.66875547499999999     
 chl2c          41  0.44304987499999998        2.5582381488167241E-002  0.44304987499999998        0.0000000000000000        5.3742533647749485E-016
 chl          41   4.5268319515746888E-023   1.0217431957462327E-022  0.44304987499999998     
 chl2c          42  0.76234377499999995        3.7949995630725070E-002  0.76234377499999995        0.0000000000000000        2.1542162691056696E-006
 chl          42   7.1763800964995651E-019   9.4135747307696790E-019  0.76234377499999995     
 chl2c          43  0.29539925000000000        2.1185090152268007E-002  0.29539925000000000        0.0000000000000000        5.4365999715145437E-016
 chl          43   3.0182217371604032E-023   1.0217431957462327E-022  0.29539925000000000     
 chl2c          44  0.62417262500000004        3.7536352708156646E-002  0.62417262500000004        0.0000000000000000        6.8777284451535620E-006
 chl          44   5.8756956503381794E-019   9.4135747307696790E-019  0.62417262500000004     
 chl2c          45  0.37662252499999999        4.6544927192009838E-002  0.37662252499999999        0.0000000000000000        4.5963449656428481E-021
 chl          45   3.8481150228351541E-023   1.0217431957462327E-022  0.37662252499999999     
 chl2c          46  0.51876034999999998        3.7083195475449568E-002  0.51876034999999998        0.0000000000000000        9.3633168649781855E-016
 chl          46   4.8833893220852346E-019   9.4135747307696790E-019  0.51876034999999998     
 chl2c          47  0.61962282499999999        3.7519784612651236E-002  0.61962282499999999        0.0000000000000000        7.7626491382816708E-006
 chl          47   5.8328657680281225E-019   9.4135747307696790E-019  0.61962282499999999     
 chl2c          48  0.71424949999999998        3.7823212136301673E-002  0.71424949999999998        0.0000000000000000        4.2438349581736205E-006
 chl          48   6.7236410446648775E-019   9.4135747307696790E-019  0.71424949999999998     
 chl2c          49  0.53276120000000005        3.7152990741888416E-002  0.53276120000000005        0.0000000000000000        7.7337142330659216E-006
 chl          49   5.0151873698545318E-019   9.4135747307696790E-019  0.53276120000000005     
 chl2c          50  0.38132569999999999        2.1533072915600981E-002  0.38132569999999999        0.0000000000000000        5.4081525386011103E-016
 chl          50   3.8961693933816921E-023   1.0217431957462327E-022  0.38132569999999999     
 chl2c          51  0.22275920000000002        2.0700971146093840E-002  0.22275920000000002        0.0000000000000000        4.2122288705257034E-006
 chl          51   2.2760269688987422E-023   1.0217431957462327E-022  0.22275920000000002     
 chl2c          52  0.63698869999999996        3.7581825176985564E-002  0.63698869999999996        0.0000000000000000        4.7566882367205402E-006
 chl          52   5.9963407301059675E-019   9.4135747307698985E-019  0.63698869999999996     
 chl2c          53  0.75269794999999995        3.7925801262726190E-002  0.75269794999999995        0.0000000000000000        1.3397582125833667E-006
 chl          53   7.0855784020223044E-019   9.4135747307698985E-019  0.75269794999999995     
 chl2c          54  0.51861124999999997        3.7082433371327092E-002  0.51861124999999997        0.0000000000000000        7.6941315044314469E-006
 chl          54   4.8819857580928762E-019   9.4135747307696790E-019  0.51861124999999997     
 chl2c          55  0.57808280000000001        3.7357235588660491E-002  0.57808280000000001        0.0000000000000000        9.3785018340025636E-016
 chl          55   5.4418256383725819E-019   9.4135747307696790E-019  0.57808280000000001     
 chl2c          56  0.61626080000000005        3.7507394187257688E-002  0.61626080000000005        0.0000000000000000        6.4037978799309240E-006
 chl          56   5.8012170944440430E-019   9.4135747307698985E-019  0.61626080000000005     
 chl2c          57  0.68163462500000005        3.7727617852646313E-002  0.68163462500000005        0.0000000000000000        9.3832749251756721E-016
 chl          57   6.4166184815176664E-019   9.4135747307696790E-019  0.68163462500000005     
 chl2c          58  0.69416802499999997        3.7765358178394853E-002  0.69416802499999997        0.0000000000000000        9.3488744221230909E-016
 chl          58   6.5346025790484472E-019   9.4135747307698985E-019  0.69416802499999997     
 chl2c          59  0.53705127500000005        3.7173699120809672E-002  0.53705127500000005        0.0000000000000000        9.3909806524742087E-016
 chl          59   5.0555723114676382E-019   9.4135747307696790E-019  0.53705127500000005     
 chl2c          60  0.64452155000000000        3.7607757740906807E-002  0.64452155000000000        0.0000000000000000        9.2749755369466735E-016
 chl          60   6.0672517765165058E-019   9.4135747307696790E-019  0.64452155000000000     
 chl2c          61  0.70794139999999994        3.7805373434125003E-002  0.70794139999999994        0.0000000000000000        7.4329366928391057E-006
 chl          61   6.6642592739057092E-019   9.4135747307696790E-019  0.70794139999999994     
 chl2c          62  0.76481592499999995        3.7956103087269030E-002  0.76481592499999995        0.0000000000000000        4.0260972783209196E-006
 chl          62   7.1996518652702373E-019   9.4135747307696790E-019  0.76481592499999995     
 chl2c          63  0.72597904999999996        3.7855601011927406E-002  0.72597904999999996        0.0000000000000000        9.2795586450498816E-016
 chl          63   6.8340580401483368E-019   9.4135747307698985E-019  0.72597904999999996     
 chl2c          64  0.48435739999999999        2.5708982294816416E-002  0.48435739999999999        0.0000000000000000        4.3810867834698622E-006
 chl          64   4.9488887775933631E-023   1.0217431957462327E-022  0.48435739999999999     
 chl2c          65  0.76379975000000000        3.7953597170552002E-002  0.76379975000000000        0.0000000000000000        9.3121357234340554E-016
 chl          65   7.1900860259683660E-019   9.4135747307698985E-019  0.76379975000000000     
 chl2c          66  0.35213202499999996        3.1840477731474713E-002  0.35213202499999996        0.0000000000000000        3.0088865207902225E-011
 chl          66   3.5978850054809226E-023   1.0217431957462327E-022  0.35213202499999996     
 chl2c          67  0.75736760000000003        3.7937587124568600E-002  0.75736760000000003        0.0000000000000000        7.7318859838423397E-006
 chl          67   7.1295365012636777E-019   9.4135747307696790E-019  0.75736760000000003     
 chl2c          68  0.72590779999999999        3.7855407263856986E-002  0.72590779999999999        0.0000000000000000        9.3488744221230909E-016
 chl          68   6.8333873229487692E-019   9.4135747307698985E-019  0.72590779999999999     
 chl2c          69  0.45524217500000003        2.1732330561541505E-002  0.45524217500000003        0.0000000000000000        5.3964169758530921E-016
 chl          69   4.6514059472296574E-023   1.0217431957462327E-022  0.45524217500000003     
 chl2c          70  0.48694062500000002        3.2658010878182209E-002  0.48694062500000002        0.0000000000000000        4.0524871452163782E-010
 chl          70   4.9752827032616788E-023   1.0217431957462327E-022  0.48694062500000002     
 chl2c          71  0.23986107500000001        4.3481058864416305E-002  0.23986107500000001        0.0000000000000000        4.2268733430310231E-021
 chl          71   2.4507642130562680E-023   1.0217431957462327E-022  0.23986107500000001     
 chl2c          72  0.62790522500000001        3.7549776402781669E-002  0.62790522500000001        0.0000000000000000        5.6134297635252028E-006
 chl          72   5.9108327593783879E-019   9.4135747307698985E-019  0.62790522500000001     
 chl2c          73  0.35362212500000001        3.1852614277819484E-002  0.35362212500000001        0.0000000000000000        3.1171699615822078E-011
 chl          73   3.6131100008407377E-023   1.0217431957462327E-022  0.35362212500000001     
 chl2c          74  0.64719590000000005        3.7616827685877569E-002  0.64719590000000005        0.0000000000000000        9.3433105405093658E-016
 chl          74   6.0924269700977403E-019   9.4135747307696790E-019  0.64719590000000005     
 chl2c          75  0.71554212500000003        3.7826830779512356E-002  0.71554212500000003        0.0000000000000000        7.0372351132289733E-006
 chl          75   6.7358092667013961E-019   9.4135747307698985E-019  0.71554212500000003     
 chl2c          76  0.55513977500000000        3.7257729557919804E-002  0.55513977500000000        0.0000000000000000        9.3441787708220220E-016
 chl          76   5.2258497579852870E-019   9.4135747307698985E-019  0.55513977500000000     
 chl2c          77  0.52973029999999999        3.7138172437479272E-002  0.52973029999999999        0.0000000000000000        9.2657696500440314E-016
 chl          77   4.9866557662030413E-019   9.4135747307696790E-019  0.52973029999999999     
 chl2c          78  0.45117492500000000        4.7515248899399322E-002  0.45117492500000000        0.0000000000000000        5.1841356416905270E-020
 chl          78   4.6098490971006686E-023   1.0217431957462327E-022  0.45117492500000000     
 prod   1.7150167204689096E-011   0.0000000000000000        10.000000000000000     
 dcdom   2.5854256551021758E-014  -1.0756047875709341E-017
 chl2c           1  0.60826437499999997        3.7477407714772232E-002  0.60826437499999997        0.0000000000000000        9.3573064626782116E-016
 chl           1   2.9504374683927423E-025   4.8505840382197994E-025  0.60826437499999997     
 chl2c           2  0.48302390000000001        3.2640259920490348E-002  0.48302390000000001        0.0000000000000000        1.4991234229920678E-021
 chl           2   1.3178947411691209E-029   2.7284255316747699E-029  0.48302390000000001     
 chl2c           3  0.75128689999999998        3.7922212503796585E-002  0.75128689999999998        0.0000000000000000        7.4349785686791359E-006
 chl           3   3.6441802452636346E-025   4.8505840382197994E-025  0.75128689999999998     
 chl2c           4  0.77318742499999993        3.7976509103863923E-002  0.77318742499999993        0.0000000000000000        9.3870557773967353E-016
 chl           4   3.7504105822572680E-025   4.8505840382197994E-025  0.77318742499999993     
 chl2c           5  0.48489679999999996        2.5710500362372445E-002  0.48489679999999996        0.0000000000000000        5.3956938707505919E-016
 chl           5   1.3230048093473945E-029   2.7284255316747699E-029  0.48489679999999996     
 chl2c           6  0.29222855000000003        3.1261039902252048E-002  0.29222855000000003        0.0000000000000000        2.5747540700143167E-020
 chl           6   7.9732383690429717E-030   2.7284255316747699E-029  0.29222855000000003     
 chl2c           7  0.22770740000000000        4.3064391842467263E-002  0.22770740000000000        0.0000000000000000        1.4628217749049349E-021
 chl           7   6.2128268391127954E-030   2.7284255316747699E-029  0.22770740000000000     
 chl2c           8  0.49578364999999996        4.7969800906495587E-002  0.49578364999999996        0.0000000000000000        1.5543521593269683E-021
 chl           8   1.3527087688469078E-029   2.7284255316747699E-029  0.49578364999999996     
 chl2c           9  0.28700202499999999        2.4803669054600401E-002  0.28700202499999999        0.0000000000000000        5.4184060478458135E-016
 chl           9   7.8306365265236055E-030   2.7284255316747699E-029  0.28700202499999999     
 chl2c          10  0.39094662499999999        2.5387016219684602E-002  0.39094662499999999        0.0000000000000000        5.4184846842811083E-016
 chl          10   1.0666687531720818E-029   2.7284255316747699E-029  0.39094662499999999     
 chl2c          11  0.49737575000000001        2.1820572217820047E-002  0.49737575000000001        0.0000000000000000        4.4271455257368486E-006
 chl          11   1.3570526951358873E-029   2.7284255316747699E-029  0.49737575000000001     
 chl2c          12  0.30768942500000002        4.5290941298723353E-002  0.30768942500000002        0.0000000000000000        1.2813944215489425E-012
 chl          12   8.3950768299632931E-030   2.7284255316747699E-029  0.30768942500000002     
 chl2c          13  0.75666275000000005        3.7935816987997487E-002  0.75666275000000005        0.0000000000000000        5.1320907947634315E-006
 chl          13   3.6702562574654576E-025   4.8505840382197452E-025  0.75666275000000005     
 chl2c          14  0.39804095000000000        4.6856526101924839E-002  0.39804095000000000        0.0000000000000000        9.7860817954665118E-011
 chl          14   1.0860250906320805E-029   2.7284255316747699E-029  0.39804095000000000     
 chl2c          15  0.25607262500000000        2.0954299823745293E-002  0.25607262500000000        0.0000000000000000        5.4323440909316953E-016
 chl          15   6.9867508801297891E-030   2.7284255316747699E-029  0.25607262500000000     
 chl2c          16  0.71433214999999994        3.7823443882273475E-002  0.71433214999999994        0.0000000000000000        2.5490206520185242E-006
 chl          16   3.4649281247772311E-025   4.8505840382197994E-025  0.71433214999999994     
 chl2c          17  0.62580860000000005        3.7542254757581245E-002  0.62580860000000005        0.0000000000000000        7.6726696561121602E-006
 chl          17   3.0355372061406795E-025   4.8505840382197994E-025  0.62580860000000005     
 chl2c          18  0.47925950000000000        2.5694475239060960E-002  0.47925950000000000        0.0000000000000000        3.1724816567321554E-006
 chl          18   1.3076238560976843E-029   2.7284255316747699E-029  0.47925950000000000     
 chl2c          19  0.63367130000000005        3.7570220750293731E-002  0.63367130000000005        0.0000000000000000        9.2840726243575490E-016
 chl          19   3.0736758932579903E-025   4.8505840382197994E-025  0.63367130000000005     
 chl2c          20  0.50678202500000002        3.7020645196759419E-002  0.50678202500000002        0.0000000000000000        6.2630407634378209E-006
 chl          20   2.4581888013216799E-025   4.8505840382197452E-025  0.50678202500000002     
 chl2c          21  0.71973185000000006        3.7838475073783531E-002  0.71973185000000006        0.0000000000000000        9.3329204647278285E-016
 chl          21   3.4911198234083683E-025   4.8505840382197452E-025  0.71973185000000006     
 chl2c          22  0.64616892500000001        3.7613353106285476E-002  0.64616892500000001        0.0000000000000000        9.3808823856822529E-016
 chl          22   3.1342966735986466E-025   4.8505840382197994E-025  0.64616892500000001     
 chl2c          23  0.41564179999999995        3.2286562315070731E-002  0.41564179999999995        0.0000000000000000        2.1400312098394569E-021
 chl          23   1.1340476991512582E-029   2.7284255316747699E-029  0.41564179999999995     
 chl2c          24  0.57597492500000003        3.7348402796863071E-002  0.57597492500000003        0.0000000000000000        6.8725328870826393E-006
 chl          24   2.7938147776198149E-025   4.8505840382197452E-025  0.57597492500000003     
 chl2c          25  0.31406487500000002        4.5426679235459781E-002  0.31406487500000002        0.0000000000000000        1.6299182947410574E-021
 chl          25   8.5690262355224515E-030   2.7284255316747699E-029  0.31406487500000002     
 chl2c          26  0.49427735000000000        4.7955660680174553E-002  0.49427735000000000        0.0000000000000000        1.1980382171310970E-011
 chl          26   1.3485989414685465E-029   2.7284255316747699E-029  0.49427735000000000     
 chl2c          27  0.30964730000000001        4.5333133499525620E-002  0.30964730000000001        0.0000000000000000        1.5882392732860024E-010
 chl          27   8.4484959913415707E-030   2.7284255316747699E-029  0.30964730000000001     
 chl2c          28  0.28776342500000002        3.1209236063453518E-002  0.28776342500000002        0.0000000000000000        1.5163884430767198E-010
 chl          28   7.8514107585217780E-030   2.7284255316747699E-029  0.28776342500000002     
 chl2c          29  0.68676297499999994        3.7743217595736761E-002  0.68676297499999994        0.0000000000000000        9.3416870019992476E-016
 chl          29   3.3312015245753056E-025   4.8505840382197452E-025  0.68676297499999994     
 chl2c          30  0.38930277499999999        2.5380056985171612E-002  0.38930277499999999        0.0000000000000000        4.4424732983799846E-006
 chl          30   1.0621836308618384E-029   2.7284255316747699E-029  0.38930277499999999     
 chl2c          31  0.63559385000000002        3.7576959810037038E-002  0.63559385000000002        0.0000000000000000        9.3635861117183882E-016
 chl          31   3.0830013836006353E-025   4.8505840382197452E-025  0.63559385000000002     
 chl2c          32  0.24722667500000001        2.0893126428578448E-002  0.24722667500000001        0.0000000000000000        5.4365791595195753E-016
 chl          32   6.7453957218106058E-030   2.7284255316747699E-029  0.24722667500000001     
 chl2c          33  0.60343137499999999        3.7458922634011876E-002  0.60343137499999999        0.0000000000000000        9.2987444876514223E-016
 chl          33   2.9269945957359933E-025   4.8505840382197452E-025  0.60343137499999999     
 chl2c          34  0.38241020000000003        2.5350269098008315E-002  0.38241020000000003        0.0000000000000000        5.3925588787242179E-016
 chl          34   1.0433777532528551E-029   2.7284255316747699E-029  0.38241020000000003     
 chl2c          35  0.49574644999999995        2.5740370148566064E-002  0.49574644999999995        0.0000000000000000        4.3081142636518063E-006
 chl          35   1.3526072714171297E-029   2.7284255316747699E-029  0.49574644999999995     
 chl2c          36  0.69587337500000002        3.7770393924465726E-002  0.69587337500000002        0.0000000000000000        6.9342976603485933E-006
 chl          36   3.3753922853971411E-025   4.8505840382197994E-025  0.69587337500000002     
 chl2c          37  0.33194060000000003        2.1353674699533250E-002  0.33194060000000003        0.0000000000000000        2.2891428782892162E-006
 chl          37   9.0567520803944214E-030   2.7284255316747699E-029  0.33194060000000003     
 chl2c          38  0.38455722500000000        2.1543295686358745E-002  0.38455722500000000        0.0000000000000000        4.1827547133304305E-006
 chl          38   1.0492357510799991E-029   2.7284255316747699E-029  0.38455722500000000     
 chl2c          39  0.47091117500000002        2.5670077108751441E-002  0.47091117500000002        0.0000000000000000        3.6724755545248911E-006
 chl          39   1.2848460730209656E-029   2.7284255316747699E-029  0.47091117500000002     
 chl2c          40  0.66875547499999999        3.7687445774703773E-002  0.66875547499999999        0.0000000000000000        2.5709947696945200E-006
 chl          40   3.2438546325071001E-025   4.8505840382197994E-025  0.66875547499999999     
 chl2c          41  0.44304987499999998        2.5582381488167241E-002  0.44304987499999998        0.0000000000000000        5.3742533647748371E-016
 chl          41   1.2088285907553153E-029   2.7284255316747699E-029  0.44304987499999998     
 chl2c          42  0.76234377499999995        3.7949995630725070E-002  0.76234377499999995        0.0000000000000000        1.5690209948566142E-006
 chl          42   3.6978125466511846E-025   4.8505840382197452E-025  0.76234377499999995     
 chl2c          43  0.29539925000000000        2.1185090152268007E-002  0.29539925000000000        0.0000000000000000        5.4365999715144816E-016
 chl          43   8.0597485573757823E-030   2.7284255316747699E-029  0.29539925000000000     
 chl2c          44  0.62417262500000004        3.7536352708156646E-002  0.62417262500000004        0.0000000000000000        6.5670396089222906E-006
 chl          44   3.0276017719187188E-025   4.8505840382197452E-025  0.62417262500000004     
 chl2c          45  0.37662252499999999        4.6544927192009838E-002  0.37662252499999999        0.0000000000000000        1.9703528569415300E-021
 chl          45   1.0275865130138193E-029   2.7284255316747699E-029  0.37662252499999999     
 chl2c          46  0.51876034999999998        3.7083195475449568E-002  0.51876034999999998        0.0000000000000000        9.3633168649779547E-016
 chl          46   2.5162906733712883E-025   4.8505840382197452E-025  0.51876034999999998     
 chl2c          47  0.61962282499999999        3.7519784612651236E-002  0.61962282499999999        0.0000000000000000        7.6560736813203148E-006
 chl          47   3.0055325846616263E-025   4.8505840382197452E-025  0.61962282499999999     
 chl2c          48  0.71424949999999998        3.7823212136301673E-002  0.71424949999999998        0.0000000000000000        3.6819413277874619E-006
 chl          48   3.4645272240064338E-025   4.8505840382197452E-025  0.71424949999999998     
 chl2c          49  0.53276120000000005        3.7152990741888416E-002  0.53276120000000005        0.0000000000000000        7.6268600859964349E-006
 chl          49   2.5842029729027974E-025   4.8505840382197452E-025  0.53276120000000005     
 chl2c          50  0.38132569999999999        2.1533072915600981E-002  0.38132569999999999        0.0000000000000000        5.4081525386010255E-016
 chl          50   1.0404187757637538E-029   2.7284255316747699E-029  0.38132569999999999     
 chl2c          51  0.22275920000000002        2.0700971146093840E-002  0.22275920000000002        0.0000000000000000        4.2505374949360291E-006
 chl          51   6.0778188869544647E-030   2.7284255316747699E-029  0.22275920000000002     
 chl2c          52  0.63698869999999996        3.7581825176985564E-002  0.63698869999999996        0.0000000000000000        4.2378244576221029E-006
 chl          52   3.0897672207463801E-025   4.8505840382197994E-025  0.63698869999999996     
 chl2c          53  0.75269794999999995        3.7925801262726190E-002  0.75269794999999995        0.0000000000000000        7.7947172349465129E-007
 chl          53   3.6510246618707646E-025   4.8505840382197994E-025  0.75269794999999995     
 chl2c          54  0.51861124999999997        3.7082433371327092E-002  0.51861124999999997        0.0000000000000000        7.5871128272090856E-006
 chl          54   2.5155674512911897E-025   4.8505840382197452E-025  0.51861124999999997     
 chl2c          55  0.57808280000000001        3.7357235588660491E-002  0.57808280000000001        0.0000000000000000        9.3785018340023486E-016
 chl          55   2.8040392024493774E-025   4.8505840382197452E-025  0.57808280000000001     
 chl2c          56  0.61626080000000005        3.7507394187257688E-002  0.61626080000000005        0.0000000000000000        6.5954239430290191E-006
 chl          56   2.9892247998605644E-025   4.8505840382197994E-025  0.61626080000000005     
 chl2c          57  0.68163462500000005        3.7727617852646313E-002  0.68163462500000005        0.0000000000000000        9.3832749251754591E-016
 chl          57   3.3063260319229018E-025   4.8505840382197452E-025  0.68163462500000005     
 chl2c          58  0.69416802499999997        3.7765358178394853E-002  0.69416802499999997        0.0000000000000000        9.3738648206954530E-016
 chl          58   3.3671203419075626E-025   4.8505840382197994E-025  0.69416802499999997     
 chl2c          59  0.53705127500000005        3.7173699120809672E-002  0.53705127500000005        0.0000000000000000        9.3909806524740016E-016
 chl          59   2.6050123422205630E-025   4.8505840382197452E-025  0.53705127500000005     
 chl2c          60  0.64452155000000000        3.7607757740906807E-002  0.64452155000000000        0.0000000000000000        9.2749755369463757E-016
 chl          60   3.1263059427186497E-025   4.8505840382197452E-025  0.64452155000000000     
 chl2c          61  0.70794139999999994        3.7805373434125003E-002  0.70794139999999994        0.0000000000000000        7.4181911035263564E-006
 chl          61   3.4339292548349399E-025   4.8505840382197452E-025  0.70794139999999994     
 chl2c          62  0.76481592499999995        3.7956103087269030E-002  0.76481592499999995        0.0000000000000000        3.4618315960467036E-006
 chl          62   3.7098039179812696E-025   4.8505840382197452E-025  0.76481592499999995     
 chl2c          63  0.72597904999999996        3.7855601011927406E-002  0.72597904999999996        0.0000000000000000        9.2795586450495877E-016
 chl          63   3.5214223920119736E-025   4.8505840382197994E-025  0.72597904999999996     
 chl2c          64  0.48435739999999999        2.5708982294816416E-002  0.48435739999999999        0.0000000000000000        4.3518190636144095E-006
 chl          64   1.3215330966156091E-029   2.7284255316747699E-029  0.48435739999999999     
 chl2c          65  0.76379975000000000        3.7953597170552002E-002  0.76379975000000000        0.0000000000000000        9.3121357234337852E-016
 chl          65   3.7048748757462734E-025   4.8505840382197994E-025  0.76379975000000000     
 chl2c          66  0.35213202499999996        3.1840477731474713E-002  0.35213202499999996        0.0000000000000000        1.2914029019824070E-011
 chl          66   9.6076600753033829E-030   2.7284255316747699E-029  0.35213202499999996     
 chl2c          67  0.75736760000000003        3.7937587124568600E-002  0.75736760000000003        0.0000000000000000        7.6245848375211402E-006
 chl          67   3.6736751916247971E-025   4.8505840382197452E-025  0.75736760000000003     
 chl2c          68  0.72590779999999999        3.7855407263856986E-002  0.72590779999999999        0.0000000000000000        9.3869611772582046E-016
 chl          68   3.5210767878992505E-025   4.8505840382197994E-025  0.72590779999999999     
 chl2c          69  0.45524217500000003        2.1732330561541505E-002  0.45524217500000003        0.0000000000000000        5.3964169758529975E-016
 chl          69   1.2420943733651538E-029   2.7284255316747699E-029  0.45524217500000003     
 chl2c          70  0.48694062500000002        3.2658010878182209E-002  0.48694062500000002        0.0000000000000000        1.8738546022788084E-010
 chl          70   1.3285812336596699E-029   2.7284255316747699E-029  0.48694062500000002     
 chl2c          71  0.23986107500000001        4.3481058864416305E-002  0.23986107500000001        0.0000000000000000        1.8119677351980032E-021
 chl          71   6.5444308108495693E-030   2.7284255316747699E-029  0.23986107500000001     
 chl2c          72  0.62790522500000001        3.7549776402781669E-002  0.62790522500000001        0.0000000000000000        5.1621568386361749E-006
 chl          72   3.0457070618998117E-025   4.8505840382197994E-025  0.62790522500000001     
 chl2c          73  0.35362212500000001        3.1852614277819484E-002  0.35362212500000001        0.0000000000000000        1.4004655860746132E-011
 chl          73   9.6483163441508692E-030   2.7284255316747699E-029  0.35362212500000001     
 chl2c          74  0.64719590000000005        3.7616827685877569E-002  0.64719590000000005        0.0000000000000000        9.3433105405091212E-016
 chl          74   3.1392781021412626E-025   4.8505840382197452E-025  0.64719590000000005     
 chl2c          75  0.71554212500000003        3.7826830779512356E-002  0.71554212500000003        0.0000000000000000        7.0966066162348681E-006
 chl          75   3.4707972101988767E-025   4.8505840382197994E-025  0.71554212500000003     
 chl2c          76  0.55513977500000000        3.7257729557919804E-002  0.55513977500000000        0.0000000000000000        9.3441787708217774E-016
 chl          76   2.6927521315959310E-025   4.8505840382197994E-025  0.55513977500000000     
 chl2c          77  0.52973029999999999        3.7138172437479272E-002  0.52973029999999999        0.0000000000000000        9.2657696500437277E-016
 chl          77   2.5695013377413571E-025   4.8505840382197452E-025  0.52973029999999999     
 chl2c          78  0.45117492500000000        4.7515248899399322E-002  0.45117492500000000        0.0000000000000000        2.4689010106217509E-020
 chl          78   1.2309971846214494E-029   2.7284255316747699E-029  0.45117492500000000     
 prod   7.3518676678967728E-012   0.0000000000000000        10.000000000000000     
 dcdom   1.1009933222882213E-014  -4.5850102627383131E-018
 chl2c           1  0.60826437499999997        3.7477407714772232E-002  0.60826437499999997        0.0000000000000000        9.3573064626781248E-016
 chl           1   9.3237248012323305E-032   1.5328408475726251E-031  0.60826437499999997     
 chl2c           2  0.48302390000000001        3.2640259920490348E-002  0.48302390000000001        0.0000000000000000        7.4421980107431988E-022
 chl           2   2.8490170714043058E-036   5.8982942073969959E-036  0.48302390000000001     
 chl2c           3  0.75128689999999998        3.7922212503796585E-002  0.75128689999999998        0.0000000000000000        7.4172128263368595E-006
 chl           3   1.1516032485662100E-031   1.5328408475726251E-031  0.75128689999999998     
 chl2c           4  0.77318742499999993        3.7976509103863923E-002  0.77318742499999993        0.0000000000000000        9.3912050325796682E-016
 chl           4   1.1851732678694955E-031   1.5328408475726251E-031  0.77318742499999993     
 chl2c           5  0.48489679999999996        2.5710500362372445E-002  0.48489679999999996        0.0000000000000000        5.3956938707505564E-016
 chl           5   2.8600639866253393E-036   5.8982942073969959E-036  0.48489679999999996     
 chl2c           6  0.29222855000000003        3.1261039902252048E-002  0.29222855000000003        0.0000000000000000        1.3910828201055147E-020
 chl           6   1.7236499637010237E-036   5.8982942073969959E-036  0.29222855000000003     
 chl2c           7  0.22770740000000000        4.3064391842467263E-002  0.22770740000000000        0.0000000000000000        7.2619830863944351E-022
 chl           7   1.3430852384014308E-036   5.8982942073969959E-036  0.22770740000000000     
 chl2c           8  0.49578364999999996        4.7969800906495587E-002  0.49578364999999996        0.0000000000000000        7.7163740853098140E-022
 chl           8   2.9242778309171393E-036   5.8982942073969959E-036  0.49578364999999996     
 chl2c           9  0.28700202499999999        2.4803669054600401E-002  0.28700202499999999        0.0000000000000000        5.4184060478457839E-016
 chl           9   1.6928223815687078E-036   5.8982942073969959E-036  0.28700202499999999     
 chl2c          10  0.39094662499999999        2.5387016219684602E-002  0.39094662499999999        0.0000000000000000        5.4184846842810787E-016
 chl          10   2.3059182136389055E-036   5.8982942073969959E-036  0.39094662499999999     
 chl2c          11  0.49737575000000001        2.1820572217820047E-002  0.49737575000000001        0.0000000000000000        4.3926805514133459E-006
 chl          11   2.9336685051247365E-036   5.8982942073969959E-036  0.49737575000000001     
 chl2c          12  0.30768942500000002        4.5290941298723353E-002  0.30768942500000002        0.0000000000000000        2.8544607028940792E-013
 chl          12   1.8148427531548126E-036   5.8982942073969959E-036  0.30768942500000002     
 chl2c          13  0.75666275000000005        3.7935816987997487E-002  0.75666275000000005        0.0000000000000000        4.8332431987200000E-006
 chl          13   1.1598435710366252E-031   1.5328408475726142E-031  0.75666275000000005     
 chl2c          14  0.39804095000000000        4.6856526101924839E-002  0.39804095000000000        0.0000000000000000        5.6337045613698088E-011
 chl          14   2.3477626296917974E-036   5.8982942073969959E-036  0.39804095000000000     
 chl2c          15  0.25607262500000000        2.0954299823745293E-002  0.25607262500000000        0.0000000000000000        5.4323440909316707E-016
 chl          15   1.5103916807104432E-036   5.8982942073969959E-036  0.25607262500000000     
 chl2c          16  0.71433214999999994        3.7823443882273475E-002  0.71433214999999994        0.0000000000000000        2.1923129170479763E-006
 chl          16   1.0949574982543755E-031   1.5328408475726251E-031  0.71433214999999994     
 chl2c          17  0.62580860000000005        3.7542254757581245E-002  0.62580860000000005        0.0000000000000000        7.6116565564321332E-006
 chl          17   9.5926498484223797E-032   1.5328408475726251E-031  0.62580860000000005     
 chl2c          18  0.47925950000000000        2.5694475239060960E-002  0.47925950000000000        0.0000000000000000        3.3135076592160341E-006
 chl          18   2.8268135326899806E-036   5.8982942073969959E-036  0.47925950000000000     
 chl2c          19  0.63367130000000005        3.7570220750293731E-002  0.63367130000000005        0.0000000000000000        9.2840726243574386E-016
 chl          19   9.7131725257444734E-032   1.5328408475726251E-031  0.63367130000000005     
 chl2c          20  0.50678202500000002        3.7020645196759419E-002  0.50678202500000002        0.0000000000000000        6.0299356555722664E-006
 chl          20   7.7681618873556580E-032   1.5328408475726142E-031  0.50678202500000002     
 chl2c          21  0.71973185000000006        3.7838475073783531E-002  0.71973185000000006        0.0000000000000000        9.3329204647277319E-016
 chl          21   1.1032343789790057E-031   1.5328408475726142E-031  0.71973185000000006     
 chl2c          22  0.64616892500000001        3.7613353106285476E-002  0.64616892500000001        0.0000000000000000        9.3808823856821721E-016
 chl          22   9.9047412267209197E-032   1.5328408475726251E-031  0.64616892500000001     
 chl2c          23  0.41564179999999995        3.2286562315070731E-002  0.41564179999999995        0.0000000000000000        1.0623905340111416E-021
 chl          23   2.4515776212920604E-036   5.8982942073969959E-036  0.41564179999999995     
 chl2c          24  0.57597492500000003        3.7348402796863071E-002  0.57597492500000003        0.0000000000000000        6.9166747141748951E-006
 chl          24   8.8287789221757288E-032   1.5328408475726142E-031  0.57597492500000003     
 chl2c          25  0.31406487500000002        4.5426679235459781E-002  0.31406487500000002        0.0000000000000000        8.0915126495580670E-022
 chl          25   1.8524470329593618E-036   5.8982942073969959E-036  0.31406487500000002     
 chl2c          26  0.49427735000000000        4.7955660680174553E-002  0.49427735000000000        0.0000000000000000        5.8736372746487657E-012
 chl          26   2.9153932303525377E-036   5.8982942073969959E-036  0.49427735000000000     
 chl2c          27  0.30964730000000001        4.5333133499525620E-002  0.30964730000000001        0.0000000000000000        8.5056143515913186E-011
 chl          27   1.8263908759261198E-036   5.8982942073969959E-036  0.30964730000000001     
 chl2c          28  0.28776342500000002        3.1209236063453518E-002  0.28776342500000002        0.0000000000000000        8.0262822797613070E-011
 chl          28   1.6973133427782200E-036   5.8982942073969959E-036  0.28776342500000002     
 chl2c          29  0.68676297499999994        3.7743217595736761E-002  0.68676297499999994        0.0000000000000000        9.3416870019991549E-016
 chl          29   1.0526983406804900E-031   1.5328408475726142E-031  0.68676297499999994     
 chl2c          30  0.38930277499999999        2.5380056985171612E-002  0.38930277499999999        0.0000000000000000        4.4053099422630917E-006
 chl          30   2.2962223027060758E-036   5.8982942073969959E-036  0.38930277499999999     
 chl2c          31  0.63559385000000002        3.7576959810037038E-002  0.63559385000000002        0.0000000000000000        9.3635861117183034E-016
 chl          31   9.7426421574594099E-032   1.5328408475726142E-031  0.63559385000000002     
 chl2c          32  0.24722667500000001        2.0893126428578448E-002  0.24722667500000001        0.0000000000000000        5.4365791595195526E-016
 chl          32   1.4582156650665197E-036   5.8982942073969959E-036  0.24722667500000001     
 chl2c          33  0.60343137499999999        3.7458922634011876E-002  0.60343137499999999        0.0000000000000000        9.2987444876513158E-016
 chl          33   9.2496426030690793E-032   1.5328408475726142E-031  0.60343137499999999     
 chl2c          34  0.38241020000000003        2.5350269098008315E-002  0.38241020000000003        0.0000000000000000        5.3925588787241804E-016
 chl          34   2.2555678675095268E-036   5.8982942073969959E-036  0.38241020000000003     
 chl2c          35  0.49574644999999995        2.5740370148566064E-002  0.49574644999999995        0.0000000000000000        4.3003687387685751E-006
 chl          35   2.9240584143726241E-036   5.8982942073969959E-036  0.49574644999999995     
 chl2c          36  0.69587337500000002        3.7770393924465726E-002  0.69587337500000002        0.0000000000000000        6.9735738772979011E-006
 chl          36   1.0666631339382233E-031   1.5328408475726251E-031  0.69587337500000002     
 chl2c          37  0.33194060000000003        2.1353674699533250E-002  0.33194060000000003        0.0000000000000000        2.4896883130135711E-006
 chl          37   1.9578833181798834E-036   5.8982942073969959E-036  0.33194060000000003     
 chl2c          38  0.38455722500000000        2.1543295686358745E-002  0.38455722500000000        0.0000000000000000        4.2037279595224622E-006
 chl          38   2.2682316526301631E-036   5.8982942073969959E-036  0.38455722500000000     
 chl2c          39  0.47091117500000002        2.5670077108751441E-002  0.47091117500000002        0.0000000000000000        3.7615660573153213E-006
 chl          39   2.7775726557010133E-036   5.8982942073969959E-036  0.47091117500000002     
 chl2c          40  0.66875547499999999        3.7687445774703773E-002  0.66875547499999999        0.0000000000000000        2.2143859338767825E-006
 chl          40   1.0250957091178336E-031   1.5328408475726251E-031  0.66875547499999999     
 chl2c          41  0.44304987499999998        2.5582381488167241E-002  0.44304987499999998        0.0000000000000000        5.3742533647747947E-016
 chl          41   2.6132385113004630E-036   5.8982942073969959E-036  0.44304987499999998     
 chl2c          42  0.76234377499999995        3.7949995630725070E-002  0.76234377499999995        0.0000000000000000        1.2232654095537605E-006
 chl          42   1.1685516782127062E-031   1.5328408475726142E-031  0.76234377499999995     
 chl2c          43  0.29539925000000000        2.1185090152268007E-002  0.29539925000000000        0.0000000000000000        5.4365999715144580E-016
 chl          43   1.7423516851444170E-036   5.8982942073969959E-036  0.29539925000000000     
 chl2c          44  0.62417262500000004        3.7536352708156646E-002  0.62417262500000004        0.0000000000000000        6.3640160868577188E-006
 chl          44   9.5675729553662357E-032   1.5328408475726142E-031  0.62417262500000004     
 chl2c          45  0.37662252499999999        4.6544927192009838E-002  0.37662252499999999        0.0000000000000000        9.7815578096744607E-022
 chl          45   2.2214304575827301E-036   5.8982942073969959E-036  0.37662252499999999     
 chl2c          46  0.51876034999999998        3.7083195475449568E-002  0.51876034999999998        0.0000000000000000        9.3633168649778699E-016
 chl          46   7.9517705458106595E-032   1.5328408475726142E-031  0.51876034999999998     
 chl2c          47  0.61962282499999999        3.7519784612651236E-002  0.61962282499999999        0.0000000000000000        7.5914021972019133E-006
 chl          47   9.4978317624833756E-032   1.5328408475726142E-031  0.61962282499999999     
 chl2c          48  0.71424949999999998        3.7823212136301673E-002  0.71424949999999998        0.0000000000000000        3.3349996035935191E-006
 chl          48   1.0948308089583159E-031   1.5328408475726142E-031  0.71424949999999998     
 chl2c          49  0.53276120000000005        3.7152990741888416E-002  0.53276120000000005        0.0000000000000000        7.5617353224315624E-006
 chl          49   8.1663812936180312E-032   1.5328408475726142E-031  0.53276120000000005     
 chl2c          50  0.38132569999999999        2.1533072915600981E-002  0.38132569999999999        0.0000000000000000        5.4081525386009939E-016
 chl          50   2.2491711674416044E-036   5.8982942073969959E-036  0.38132569999999999     
 chl2c          51  0.22275920000000002        2.0700971146093840E-002  0.22275920000000002        0.0000000000000000        4.2604307286131294E-006
 chl          51   1.3138992990043890E-036   5.8982942073969959E-036  0.22275920000000002     
 chl2c          52  0.63698869999999996        3.7581825176985564E-002  0.63698869999999996        0.0000000000000000        3.9024292821802472E-006
 chl          52   9.7640229880218456E-032   1.5328408475726251E-031  0.63698869999999996     
 chl2c          53  0.75269794999999995        3.7925801262726190E-002  0.75269794999999995        0.0000000000000000        4.5443719514221776E-007
 chl          53   1.1537661636441774E-031   1.5328408475726251E-031  0.75269794999999995     
 chl2c          54  0.51861124999999997        3.7082433371327092E-002  0.51861124999999997        0.0000000000000000        7.5216490853976161E-006
 chl          54   7.9494850801069291E-032   1.5328408475726142E-031  0.51861124999999997     
 chl2c          55  0.57808280000000001        3.7357235588660491E-002  0.57808280000000001        0.0000000000000000        9.3785018340022658E-016
 chl          55   8.8610892911915000E-032   1.5328408475726142E-031  0.57808280000000001     
 chl2c          56  0.61626080000000005        3.7507394187257688E-002  0.61626080000000005        0.0000000000000000        6.6763672274116885E-006
 chl          56   9.4462972699778409E-032   1.5328408475726251E-031  0.61626080000000005     
 chl2c          57  0.68163462500000005        3.7727617852646313E-002  0.68163462500000005        0.0000000000000000        9.3832749251753782E-016
 chl          57   1.0448373963198412E-031   1.5328408475726142E-031  0.68163462500000005     
 chl2c          58  0.69416802499999997        3.7765358178394853E-002  0.69416802499999997        0.0000000000000000        9.3738648206953702E-016
 chl          58   1.0640491037988152E-031   1.5328408475726251E-031  0.69416802499999997     
 chl2c          59  0.53705127500000005        3.7173699120809672E-002  0.53705127500000005        0.0000000000000000        9.3909806524739247E-016
 chl          59   8.2321413156095318E-032   1.5328408475726142E-031  0.53705127500000005     
 chl2c          60  0.64452155000000000        3.7607757740906807E-002  0.64452155000000000        0.0000000000000000        9.2749755369462653E-016
 chl          60   9.8794895898081494E-032   1.5328408475726142E-031  0.64452155000000000     
 chl2c          61  0.70794139999999994        3.7805373434125003E-002  0.70794139999999994        0.0000000000000000        7.3990353885181180E-006
 chl          61   1.0851614956077429E-031   1.5328408475726142E-031  0.70794139999999994     
 chl2c          62  0.76481592499999995        3.7956103087269030E-002  0.76481592499999995        0.0000000000000000        3.1147198718411454E-006
 chl          62   1.1723410907140329E-031   1.5328408475726142E-031  0.76481592499999995     
 chl2c          63  0.72597904999999996        3.7855601011927406E-002  0.72597904999999996        0.0000000000000000        9.2795586450494773E-016
 chl          63   1.1128103423219693E-031   1.5328408475726251E-031  0.72597904999999996     
 chl2c          64  0.48435739999999999        2.5708982294816416E-002  0.48435739999999999        0.0000000000000000        4.3281273724282657E-006
 chl          64   2.8568824467298697E-036   5.8982942073969959E-036  0.48435739999999999     
 chl2c          65  0.76379975000000000        3.7953597170552002E-002  0.76379975000000000        0.0000000000000000        9.3121357234336846E-016
 chl          65   1.1707834561657591E-031   1.5328408475726251E-031  0.76379975000000000     
 chl2c          66  0.35213202499999996        3.1840477731474713E-002  0.35213202499999996        0.0000000000000000        6.4006194048154989E-012
 chl          66   2.0769782832964738E-036   5.8982942073969959E-036  0.35213202499999996     
 chl2c          67  0.75736760000000003        3.7937587124568600E-002  0.75736760000000003        0.0000000000000000        7.5590248005675063E-006
 chl          67   1.1609239939080366E-031   1.5328408475726142E-031  0.75736760000000003     
 chl2c          68  0.72590779999999999        3.7855407263856986E-002  0.72590779999999999        0.0000000000000000        9.3869611772581238E-016
 chl          68   1.1127011274115798E-031   1.5328408475726251E-031  0.72590779999999999     
 chl2c          69  0.45524217500000003        2.1732330561541505E-002  0.45524217500000003        0.0000000000000000        5.3964169758529620E-016
 chl          69   2.6851522837653098E-036   5.8982942073969959E-036  0.45524217500000003     
 chl2c          70  0.48694062500000002        3.2658010878182209E-002  0.48694062500000002        0.0000000000000000        9.9145588153684317E-011
 chl          70   2.8721190677837728E-036   5.8982942073969959E-036  0.48694062500000002     
 chl2c          71  0.23986107500000001        4.3481058864416305E-002  0.23986107500000001        0.0000000000000000        8.9952743864211864E-022
 chl          71   1.4147711892525165E-036   5.8982942073969959E-036  0.23986107500000001     
 chl2c          72  0.62790522500000001        3.7549776402781669E-002  0.62790522500000001        0.0000000000000000        4.8610211880091699E-006
 chl          72   9.6247877728427987E-032   1.5328408475726251E-031  0.62790522500000001     
 chl2c          73  0.35362212500000001        3.1852614277819484E-002  0.35362212500000001        0.0000000000000000        7.1065561419534860E-012
 chl          73   2.0857673314949164E-036   5.8982942073969959E-036  0.35362212500000001     
 chl2c          74  0.64719590000000005        3.7616827685877569E-002  0.64719590000000005        0.0000000000000000        9.3433105405090285E-016
 chl          74   9.9204831190152089E-032   1.5328408475726142E-031  0.64719590000000005     
 chl2c          75  0.71554212500000003        3.7826830779512356E-002  0.71554212500000003        0.0000000000000000        7.1175727435902449E-006
 chl          75   1.0968121973589174E-031   1.5328408475726251E-031  0.71554212500000003     
 chl2c          76  0.55513977500000000        3.7257729557919804E-002  0.55513977500000000        0.0000000000000000        9.3441787708216848E-016
 chl          76   8.5094092323227637E-032   1.5328408475726251E-031  0.55513977500000000     
 chl2c          77  0.52973029999999999        3.7138172437479272E-002  0.52973029999999999        0.0000000000000000        9.2657696500436113E-016
 chl          77   8.1199224203689518E-032   1.5328408475726142E-031  0.52973029999999999     
 chl2c          78  0.45117492500000000        4.7515248899399322E-002  0.45117492500000000        0.0000000000000000        1.3338917621706002E-020
 chl          78   2.6611624466502741E-036   5.8982942073969959E-036  0.45117492500000000     
 prod   3.6497315132519828E-012   0.0000000000000000        10.000000000000000     
 dcdom   5.4392003231757320E-015  -2.2631953528695598E-018
 dcdomgraz   7.3432612222800734E-020
 dcdommort   8.0831724927189789E-012
 dcdomgraz   7.4548475447078346E-020
 dcdommort   8.1851020402461555E-012
 dcdomgraz   7.5158222652226290E-020
 dcdommort   8.2360891655439594E-012
 dcdomgraz   7.5777464932563820E-020
 dcdommort   8.3130840220104229E-012
 dcdomgraz   7.6386836302214203E-020
 dcdommort   8.3977300639840146E-012
 dcdomgraz   7.4994645357567962E-020
 dcdommort   8.3063847918531308E-012
 dcdomgraz   7.3596474417713358E-020
 dcdommort   8.2137347788585729E-012
 dcdomgraz   6.1106990393345203E-020
 dcdommort   7.3762382143000749E-012
 dcdomgraz   4.9722494891570779E-020
 dcdommort   6.5361157208409029E-012
 dcdomgraz   3.8090034022404182E-020
 dcdommort   5.2244462041706021E-012
 dcdomgraz   2.6634554114026318E-020
 dcdommort   3.7543130857017632E-012
 dcdomgraz   1.5760284812688245E-020
 dcdommort   2.2845863129467013E-012
 dcdomgraz   1.1087053470658896E-020
 dcdommort   1.6076045408377884E-012
 dcdomgraz   8.3327400846643243E-021
 dcdommort   1.1971173341229307E-012
 dcdomgraz   5.5281239290255016E-021
 dcdommort   7.8690883041156002E-013
 dcdomgraz   1.2313745432247312E-021
 dcdommort   1.7275350162756949E-013
 dcdomgraz   7.0672169766561731E-022
 dcdommort   1.3058386364948617E-013
 dcdomgraz   3.3091968318054224E-022
 dcdommort   8.9361562039771874E-014
 dcdomgraz   9.6014871879681651E-023
 dcdommort   4.8142967086693219E-014
 dcdomgraz   1.9756478766401048E-024
 dcdommort   6.9174626871717835E-015
 dcdomgraz   5.0705761834102517E-031
 dcdommort   7.9399490497181091E-018
 dcdomgraz   0.0000000000000000     
 dcdommort   5.1436833152354870E-021
 dcdomgraz   0.0000000000000000     
 dcdommort   1.1893077517891794E-024
 dcdomgraz   0.0000000000000000     
 dcdommort   6.1400307891677377E-035
 dcdomgraz   0.0000000000000000     
 dcdommort   5.6732595580332443E-034
 dcdomgraz   0.0000000000000000     
 dcdommort   3.5459026108682079E-029
 dcdomgraz   0.0000000000000000     
 dcdommort   1.8014945664837092E-023
 dcdomgraz   0.0000000000000000     
 dcdommort   3.7555350620534786E-018
 dcdomgraz   5.7792267551781916E-026
 dcdommort   1.7839093351378373E-017
 dcdomgraz   9.8893146989638539E-028
 dcdommort   4.9000863815290698E-018
 dcdomgraz   9.8788878040300684E-028
 dcdommort   4.8995630864443256E-018
 dcdomgraz   0.0000000000000000     
 dcdommort   1.4542565633176219E-022
 dcdomgraz   0.0000000000000000     
 dcdommort   5.0947026866651577E-031
 dcdomgraz   0.0000000000000000     
 dcdommort   1.3585870126685970E-037
 dcdomgraz   0.0000000000000000     
 dcdommort   2.9345477677688198E-044
 fe   1.3003907495951347E-003
(PID.TID 0000.0001) // =======================================================
(PID.TID 0000.0001) // Begin MONITOR dynamic field statistics
(PID.TID 0000.0001) // =======================================================
(PID.TID 0000.0001) %MON time_tsnumber                =                     3
(PID.TID 0000.0001) %MON time_secondsf                =   1.0800000000000000E+04
(PID.TID 0000.0001) %MON dynstat_eta_max              =   0.0000000000000000E+00
(PID.TID 0000.0001) %MON dynstat_eta_min              =   0.0000000000000000E+00
(PID.TID 0000.0001) %MON dynstat_eta_mean             =   0.0000000000000000E+00
(PID.TID 0000.0001) %MON dynstat_eta_sd               =   0.0000000000000000E+00
(PID.TID 0000.0001) %MON dynstat_eta_del2             =   0.0000000000000000E+00
(PID.TID 0000.0001) %MON dynstat_uvel_max             =   0.0000000000000000E+00
(PID.TID 0000.0001) %MON dynstat_uvel_min             =   0.0000000000000000E+00
(PID.TID 0000.0001) %MON dynstat_uvel_mean            =   0.0000000000000000E+00
(PID.TID 0000.0001) %MON dynstat_uvel_sd              =   0.0000000000000000E+00
(PID.TID 0000.0001) %MON dynstat_uvel_del2            =   0.0000000000000000E+00
(PID.TID 0000.0001) %MON dynstat_vvel_max             =   0.0000000000000000E+00
(PID.TID 0000.0001) %MON dynstat_vvel_min             =   0.0000000000000000E+00
(PID.TID 0000.0001) %MON dynstat_vvel_mean            =   0.0000000000000000E+00
(PID.TID 0000.0001) %MON dynstat_vvel_sd              =   0.0000000000000000E+00
(PID.TID 0000.0001) %MON dynstat_vvel_del2            =   0.0000000000000000E+00
(PID.TID 0000.0001) %MON dynstat_wvel_max             =   0.0000000000000000E+00
(PID.TID 0000.0001) %MON dynstat_wvel_min             =   0.0000000000000000E+00
(PID.TID 0000.0001) %MON dynstat_wvel_mean            =   0.0000000000000000E+00
(PID.TID 0000.0001) %MON dynstat_wvel_sd              =   0.0000000000000000E+00
(PID.TID 0000.0001) %MON dynstat_wvel_del2            =   0.0000000000000000E+00
(PID.TID 0000.0001) %MON dynstat_theta_max            =   2.6316641728911865E+01
(PID.TID 0000.0001) %MON dynstat_theta_min            =   2.6737007672781163E+00
(PID.TID 0000.0001) %MON dynstat_theta_mean           =   5.4735157557642413E+00
(PID.TID 0000.0001) %MON dynstat_theta_sd             =   5.1968480490481044E+00
(PID.TID 0000.0001) %MON dynstat_theta_del2           =   0.0000000000000000E+00
(PID.TID 0000.0001) %MON dynstat_salt_max             =   3.5000000000000000E+01
(PID.TID 0000.0001) %MON dynstat_salt_min             =   3.5000000000000000E+01
(PID.TID 0000.0001) %MON dynstat_salt_mean            =   3.5000000000000007E+01
(PID.TID 0000.0001) %MON dynstat_salt_sd              =   7.1054273576010019E-15
(PID.TID 0000.0001) %MON dynstat_salt_del2            =   0.0000000000000000E+00
(PID.TID 0000.0001) %MON dynstat_sst_max              =   2.6316641728911865E+01
(PID.TID 0000.0001) %MON dynstat_sst_min              =   2.6316641728911865E+01
(PID.TID 0000.0001) %MON dynstat_sst_mean             =   2.6316641728911865E+01
(PID.TID 0000.0001) %MON dynstat_sst_sd               =   0.0000000000000000E+00
(PID.TID 0000.0001) %MON dynstat_sst_del2             =   0.0000000000000000E+00
(PID.TID 0000.0001) %MON dynstat_sss_max              =   3.5000000000000000E+01
(PID.TID 0000.0001) %MON dynstat_sss_min              =   3.5000000000000000E+01
(PID.TID 0000.0001) %MON dynstat_sss_mean             =   3.5000000000000000E+01
(PID.TID 0000.0001) %MON dynstat_sss_sd               =   0.0000000000000000E+00
(PID.TID 0000.0001) %MON dynstat_sss_del2             =   0.0000000000000000E+00
(PID.TID 0000.0001) %MON forcing_qnet_max             =   0.0000000000000000E+00
(PID.TID 0000.0001) %MON forcing_qnet_min             =   0.0000000000000000E+00
(PID.TID 0000.0001) %MON forcing_qnet_mean            =   0.0000000000000000E+00
(PID.TID 0000.0001) %MON forcing_qnet_sd              =   0.0000000000000000E+00
(PID.TID 0000.0001) %MON forcing_qnet_del2            =   0.0000000000000000E+00
(PID.TID 0000.0001) %MON forcing_qsw_max              =   0.0000000000000000E+00
(PID.TID 0000.0001) %MON forcing_qsw_min              =   0.0000000000000000E+00
(PID.TID 0000.0001) %MON forcing_qsw_mean             =   0.0000000000000000E+00
(PID.TID 0000.0001) %MON forcing_qsw_sd               =   0.0000000000000000E+00
(PID.TID 0000.0001) %MON forcing_qsw_del2             =   0.0000000000000000E+00
(PID.TID 0000.0001) %MON forcing_empmr_max            =   0.0000000000000000E+00
(PID.TID 0000.0001) %MON forcing_empmr_min            =   0.0000000000000000E+00
(PID.TID 0000.0001) %MON forcing_empmr_mean           =   0.0000000000000000E+00
(PID.TID 0000.0001) %MON forcing_empmr_sd             =   0.0000000000000000E+00
(PID.TID 0000.0001) %MON forcing_empmr_del2           =   0.0000000000000000E+00
(PID.TID 0000.0001) %MON forcing_fu_max               =   0.0000000000000000E+00
(PID.TID 0000.0001) %MON forcing_fu_min               =   0.0000000000000000E+00
(PID.TID 0000.0001) %MON forcing_fu_mean              =   0.0000000000000000E+00
(PID.TID 0000.0001) %MON forcing_fu_sd                =   0.0000000000000000E+00
(PID.TID 0000.0001) %MON forcing_fu_del2              =   0.0000000000000000E+00
(PID.TID 0000.0001) %MON forcing_fv_max               =   0.0000000000000000E+00
(PID.TID 0000.0001) %MON forcing_fv_min               =   0.0000000000000000E+00
(PID.TID 0000.0001) %MON forcing_fv_mean              =   0.0000000000000000E+00
(PID.TID 0000.0001) %MON forcing_fv_sd                =   0.0000000000000000E+00
(PID.TID 0000.0001) %MON forcing_fv_del2              =   0.0000000000000000E+00
(PID.TID 0000.0001) %MON advcfl_uvel_max              =   0.0000000000000000E+00
(PID.TID 0000.0001) %MON advcfl_vvel_max              =   0.0000000000000000E+00
(PID.TID 0000.0001) %MON advcfl_wvel_max              =   0.0000000000000000E+00
(PID.TID 0000.0001) %MON advcfl_W_hf_max              =   0.0000000000000000E+00
(PID.TID 0000.0001) %MON pe_b_mean                    =   0.0000000000000000E+00
(PID.TID 0000.0001) %MON ke_max                       =   0.0000000000000000E+00
(PID.TID 0000.0001) %MON ke_mean                      =   0.0000000000000000E+00
(PID.TID 0000.0001) %MON ke_vol                       =   4.1199767883484609E+13
(PID.TID 0000.0001) %MON vort_r_min                   =   0.0000000000000000E+00
(PID.TID 0000.0001) %MON vort_r_max                   =   0.0000000000000000E+00
(PID.TID 0000.0001) %MON vort_a_mean                  =  -4.5067801836624727E-05
(PID.TID 0000.0001) %MON vort_a_sd                    =  -4.1359030627651384E-25
(PID.TID 0000.0001) %MON vort_p_mean                  =  -4.5067801836624727E-05
(PID.TID 0000.0001) %MON vort_p_sd                    =   0.0000000000000000E+00
(PID.TID 0000.0001) %MON surfExpan_theta_mean         =   0.0000000000000000E+00
(PID.TID 0000.0001) %MON surfExpan_salt_mean          =   0.0000000000000000E+00
(PID.TID 0000.0001) // =======================================================
(PID.TID 0000.0001) // End MONITOR dynamic field statistics
(PID.TID 0000.0001) // =======================================================
(PID.TID 0000.0001) // =======================================================
(PID.TID 0000.0001) // Begin MONITOR ptracer field statistics
(PID.TID 0000.0001) // =======================================================
(PID.TID 0000.0001) %MON trcstat_ptracer01_max        =   2.0000000003839905E+03
(PID.TID 0000.0001) %MON trcstat_ptracer01_min        =   1.9999995635004859E+03
(PID.TID 0000.0001) %MON trcstat_ptracer01_mean       =   1.9999999980754119E+03
(PID.TID 0000.0001) %MON trcstat_ptracer01_sd         =   2.5797624768305267E-05
(PID.TID 0000.0001) %MON trcstat_ptracer01_del2       =   0.0000000000000000E+00
(PID.TID 0000.0001) %MON trcstat_ptracer02_max        =   1.9784518114282394E-02
(PID.TID 0000.0001) %MON trcstat_ptracer02_min        =   1.4454214190672750E-07
(PID.TID 0000.0001) %MON trcstat_ptracer02_mean       =   4.9045233794065360E-04
(PID.TID 0000.0001) %MON trcstat_ptracer02_sd         =   2.6363805463024605E-03
(PID.TID 0000.0001) %MON trcstat_ptracer02_del2       =   0.0000000000000000E+00
(PID.TID 0000.0001) %MON trcstat_ptracer03_max        =   1.8746041906164638E-02
(PID.TID 0000.0001) %MON trcstat_ptracer03_min        =   3.8743032276585667E-06
(PID.TID 0000.0001) %MON trcstat_ptracer03_mean       =   7.1413439680831554E-04
(PID.TID 0000.0001) %MON trcstat_ptracer03_sd         =   2.2658401325254696E-03
(PID.TID 0000.0001) %MON trcstat_ptracer03_del2       =   0.0000000000000000E+00
(PID.TID 0000.0001) %MON trcstat_ptracer04_max        =   3.3903494635232867E+01
(PID.TID 0000.0001) %MON trcstat_ptracer04_min        =   4.6652472269851197E-02
(PID.TID 0000.0001) %MON trcstat_ptracer04_mean       =   2.3502397524141472E+01
(PID.TID 0000.0001) %MON trcstat_ptracer04_sd         =   7.8161791595825116E+00
(PID.TID 0000.0001) %MON trcstat_ptracer04_del2       =   0.0000000000000000E+00
(PID.TID 0000.0001) %MON trcstat_ptracer05_max        =   2.2436993751164462E+00
(PID.TID 0000.0001) %MON trcstat_ptracer05_min        =   2.1025903540129345E-01
(PID.TID 0000.0001) %MON trcstat_ptracer05_mean       =   1.5821339977809543E+00
(PID.TID 0000.0001) %MON trcstat_ptracer05_sd         =   4.6734943316924915E-01
(PID.TID 0000.0001) %MON trcstat_ptracer05_del2       =   0.0000000000000000E+00
(PID.TID 0000.0001) %MON trcstat_ptracer06_max        =   3.9387400882395667E+01
(PID.TID 0000.0001) %MON trcstat_ptracer06_min        =   1.2248146512219671E+00
(PID.TID 0000.0001) %MON trcstat_ptracer06_mean       =   2.9621891036987385E+01
(PID.TID 0000.0001) %MON trcstat_ptracer06_sd         =   1.1270582099417156E+01
(PID.TID 0000.0001) %MON trcstat_ptracer06_del2       =   0.0000000000000000E+00
(PID.TID 0000.0001) %MON trcstat_ptracer07_max        =   1.3003907495951347E-03
(PID.TID 0000.0001) %MON trcstat_ptracer07_min        =   1.2999561727033838E-03
(PID.TID 0000.0001) %MON trcstat_ptracer07_mean       =   1.2999576610380531E-03
(PID.TID 0000.0001) %MON trcstat_ptracer07_sd         =   2.3224523598589629E-08
(PID.TID 0000.0001) %MON trcstat_ptracer07_del2       =   0.0000000000000000E+00
(PID.TID 0000.0001) %MON trcstat_ptracer08_max        =   5.9911305106244784E-03
(PID.TID 0000.0001) %MON trcstat_ptracer08_min        =  -1.6201096552396150E-06
(PID.TID 0000.0001) %MON trcstat_ptracer08_mean       =   5.2944251426209306E-05
(PID.TID 0000.0001) %MON trcstat_ptracer08_sd         =   3.8312524993970939E-04
(PID.TID 0000.0001) %MON trcstat_ptracer08_del2       =   0.0000000000000000E+00
(PID.TID 0000.0001) %MON trcstat_ptracer09_max        =   8.2511946482813042E-02
(PID.TID 0000.0001) %MON trcstat_ptracer09_min        =   4.5996512047773262E-08
(PID.TID 0000.0001) %MON trcstat_ptracer09_mean       =   3.4416843369376995E-03
(PID.TID 0000.0001) %MON trcstat_ptracer09_sd         =   1.4808294315226090E-02
(PID.TID 0000.0001) %MON trcstat_ptracer09_del2       =   0.0000000000000000E+00
(PID.TID 0000.0001) %MON trcstat_ptracer10_max        =   5.1569966551758151E-03
(PID.TID 0000.0001) %MON trcstat_ptracer10_min        =   2.8747820029858289E-09
(PID.TID 0000.0001) %MON trcstat_ptracer10_mean       =   2.1510527105860622E-04
(PID.TID 0000.0001) %MON trcstat_ptracer10_sd         =   9.2551839470163060E-04
(PID.TID 0000.0001) %MON trcstat_ptracer10_del2       =   0.0000000000000000E+00
(PID.TID 0000.0001) %MON trcstat_ptracer11_max        =   5.1569966438956320E-06
(PID.TID 0000.0001) %MON trcstat_ptracer11_min        =   2.8747816814646101E-12
(PID.TID 0000.0001) %MON trcstat_ptracer11_mean       =   2.1510527136604142E-07
(PID.TID 0000.0001) %MON trcstat_ptracer11_sd         =   9.2551839434232264E-07
(PID.TID 0000.0001) %MON trcstat_ptracer11_del2       =   0.0000000000000000E+00
(PID.TID 0000.0001) %MON trcstat_ptracer12_max        =   3.0904936660619678E-04
(PID.TID 0000.0001) %MON trcstat_ptracer12_min        =   1.2456839356038440E-29
(PID.TID 0000.0001) %MON trcstat_ptracer12_mean       =   9.2222277134726262E-06
(PID.TID 0000.0001) %MON trcstat_ptracer12_sd         =   4.8227968686863495E-05
(PID.TID 0000.0001) %MON trcstat_ptracer12_del2       =   0.0000000000000000E+00
(PID.TID 0000.0001) %MON trcstat_ptracer13_max        =   4.3481775392785194E-03
(PID.TID 0000.0001) %MON trcstat_ptracer13_min        =   1.8813920027646486E-05
(PID.TID 0000.0001) %MON trcstat_ptracer13_mean       =   1.2609843307507334E-03
(PID.TID 0000.0001) %MON trcstat_ptracer13_sd         =   1.5428305296595211E-03
(PID.TID 0000.0001) %MON trcstat_ptracer13_del2       =   0.0000000000000000E+00
(PID.TID 0000.0001) %MON trcstat_ptracer14_max        =   2.7176109620490746E-04
(PID.TID 0000.0001) %MON trcstat_ptracer14_min        =   1.1758700017279053E-06
(PID.TID 0000.0001) %MON trcstat_ptracer14_mean       =   7.8811520671920836E-05
(PID.TID 0000.0001) %MON trcstat_ptracer14_sd         =   9.6426908103720071E-05
(PID.TID 0000.0001) %MON trcstat_ptracer14_del2       =   0.0000000000000000E+00
(PID.TID 0000.0001) %MON trcstat_ptracer15_max        =   1.6242578554935695E-02
(PID.TID 0000.0001) %MON trcstat_ptracer15_min        =   1.1396871723565823E-03
(PID.TID 0000.0001) %MON trcstat_ptracer15_mean       =   5.4880094130590560E-03
(PID.TID 0000.0001) %MON trcstat_ptracer15_sd         =   5.1683221020019611E-03
(PID.TID 0000.0001) %MON trcstat_ptracer15_del2       =   0.0000000000000000E+00
(PID.TID 0000.0001) %MON trcstat_ptracer16_max        =   2.7176111210358430E-07
(PID.TID 0000.0001) %MON trcstat_ptracer16_min        =   1.1758698733136167E-09
(PID.TID 0000.0001) %MON trcstat_ptracer16_mean       =   7.8811521197225296E-08
(PID.TID 0000.0001) %MON trcstat_ptracer16_sd         =   9.6426910158938174E-08
(PID.TID 0000.0001) %MON trcstat_ptracer16_del2       =   0.0000000000000000E+00
(PID.TID 0000.0001) %MON trcstat_ptracer17_max        =   0.0000000000000000E+00
(PID.TID 0000.0001) %MON trcstat_ptracer17_min        =   0.0000000000000000E+00
(PID.TID 0000.0001) %MON trcstat_ptracer17_mean       =   0.0000000000000000E+00
(PID.TID 0000.0001) %MON trcstat_ptracer17_sd         =   0.0000000000000000E+00
(PID.TID 0000.0001) %MON trcstat_ptracer17_del2       =   0.0000000000000000E+00
(PID.TID 0000.0001) %MON trcstat_ptracer18_max        =   5.1084879380939845E-03
(PID.TID 0000.0001) %MON trcstat_ptracer18_min        =   5.8680989357748293E-11
(PID.TID 0000.0001) %MON trcstat_ptracer18_mean       =   2.1442979754666470E-04
(PID.TID 0000.0001) %MON trcstat_ptracer18_sd         =   9.2291311304254335E-04
(PID.TID 0000.0001) %MON trcstat_ptracer18_del2       =   0.0000000000000000E+00
(PID.TID 0000.0001) %MON trcstat_ptracer19_max        =   8.7049046216055475E-04
(PID.TID 0000.0001) %MON trcstat_ptracer19_min        =   2.0364050910673092E-29
(PID.TID 0000.0001) %MON trcstat_ptracer19_mean       =   2.5957705678903139E-05
(PID.TID 0000.0001) %MON trcstat_ptracer19_sd         =   1.3603751220376666E-04
(PID.TID 0000.0001) %MON trcstat_ptracer19_del2       =   0.0000000000000000E+00
(PID.TID 0000.0001) %MON trcstat_ptracer20_max        =   8.7054553388917172E-04
(PID.TID 0000.0001) %MON trcstat_ptracer20_min        =   5.8982942073969959E-36
(PID.TID 0000.0001) %MON trcstat_ptracer20_mean       =   2.6012694600928364E-05
(PID.TID 0000.0001) %MON trcstat_ptracer20_sd         =   1.3641986896764782E-04
(PID.TID 0000.0001) %MON trcstat_ptracer20_del2       =   0.0000000000000000E+00
(PID.TID 0000.0001) %MON trcstat_ptracer21_max        =   8.7049046216055475E-04
(PID.TID 0000.0001) %MON trcstat_ptracer21_min        =   2.0364050910673092E-29
(PID.TID 0000.0001) %MON trcstat_ptracer21_mean       =   2.5957705678904040E-05
(PID.TID 0000.0001) %MON trcstat_ptracer21_sd         =   1.3603751220377208E-04
(PID.TID 0000.0001) %MON trcstat_ptracer21_del2       =   0.0000000000000000E+00
(PID.TID 0000.0001) %MON trcstat_ptracer22_max        =   8.7049046738963136E-04
(PID.TID 0000.0001) %MON trcstat_ptracer22_min        =   2.0364050910673092E-29
(PID.TID 0000.0001) %MON trcstat_ptracer22_mean       =   2.6043484568151681E-05
(PID.TID 0000.0001) %MON trcstat_ptracer22_sd         =   1.3655288499148503E-04
(PID.TID 0000.0001) %MON trcstat_ptracer22_del2       =   0.0000000000000000E+00
(PID.TID 0000.0001) %MON trcstat_ptracer23_max        =   8.7054553422788558E-04
(PID.TID 0000.0001) %MON trcstat_ptracer23_min        =   5.8982942073969959E-36
(PID.TID 0000.0001) %MON trcstat_ptracer23_mean       =   2.6066018337426654E-05
(PID.TID 0000.0001) %MON trcstat_ptracer23_sd         =   1.3674341024992964E-04
(PID.TID 0000.0001) %MON trcstat_ptracer23_del2       =   0.0000000000000000E+00
(PID.TID 0000.0001) %MON trcstat_ptracer24_max        =   8.7054553376049893E-04
(PID.TID 0000.0001) %MON trcstat_ptracer24_min        =   5.8982942073969959E-36
(PID.TID 0000.0001) %MON trcstat_ptracer24_mean       =   2.5957705673247961E-05
(PID.TID 0000.0001) %MON trcstat_ptracer24_sd         =   1.3608945110150483E-04
(PID.TID 0000.0001) %MON trcstat_ptracer24_del2       =   0.0000000000000000E+00
(PID.TID 0000.0001) %MON trcstat_ptracer25_max        =   8.7054553378975949E-04
(PID.TID 0000.0001) %MON trcstat_ptracer25_min        =   5.8982942073969959E-36
(PID.TID 0000.0001) %MON trcstat_ptracer25_mean       =   2.5986714199980069E-05
(PID.TID 0000.0001) %MON trcstat_ptracer25_sd         =   1.3626313643389949E-04
(PID.TID 0000.0001) %MON trcstat_ptracer25_del2       =   0.0000000000000000E+00
(PID.TID 0000.0001) %MON trcstat_ptracer26_max        =   8.7054553376049893E-04
(PID.TID 0000.0001) %MON trcstat_ptracer26_min        =   5.8982942073969959E-36
(PID.TID 0000.0001) %MON trcstat_ptracer26_mean       =   2.5957705673245623E-05
(PID.TID 0000.0001) %MON trcstat_ptracer26_sd         =   1.3608945110149076E-04
(PID.TID 0000.0001) %MON trcstat_ptracer26_del2       =   0.0000000000000000E+00
(PID.TID 0000.0001) %MON trcstat_ptracer27_max        =   8.7054553385566575E-04
(PID.TID 0000.0001) %MON trcstat_ptracer27_min        =   5.8982942073969959E-36
(PID.TID 0000.0001) %MON trcstat_ptracer27_mean       =   2.5959921060217144E-05
(PID.TID 0000.0001) %MON trcstat_ptracer27_sd         =   1.3610289423553041E-04
(PID.TID 0000.0001) %MON trcstat_ptracer27_del2       =   0.0000000000000000E+00
(PID.TID 0000.0001) %MON trcstat_ptracer28_max        =   8.7054553415053426E-04
(PID.TID 0000.0001) %MON trcstat_ptracer28_min        =   5.8982942073969959E-36
(PID.TID 0000.0001) %MON trcstat_ptracer28_mean       =   2.6075844188755548E-05
(PID.TID 0000.0001) %MON trcstat_ptracer28_sd         =   1.3680327393043491E-04
(PID.TID 0000.0001) %MON trcstat_ptracer28_del2       =   0.0000000000000000E+00
(PID.TID 0000.0001) %MON trcstat_ptracer29_max        =   8.7054553376049893E-04
(PID.TID 0000.0001) %MON trcstat_ptracer29_min        =   5.8982942073969959E-36
(PID.TID 0000.0001) %MON trcstat_ptracer29_mean       =   2.5957705673251488E-05
(PID.TID 0000.0001) %MON trcstat_ptracer29_sd         =   1.3608945110152611E-04
(PID.TID 0000.0001) %MON trcstat_ptracer29_del2       =   0.0000000000000000E+00
(PID.TID 0000.0001) %MON trcstat_ptracer30_max        =   8.7054553376049893E-04
(PID.TID 0000.0001) %MON trcstat_ptracer30_min        =   5.8982942073969959E-36
(PID.TID 0000.0001) %MON trcstat_ptracer30_mean       =   2.5957705673245575E-05
(PID.TID 0000.0001) %MON trcstat_ptracer30_sd         =   1.3608945110149046E-04
(PID.TID 0000.0001) %MON trcstat_ptracer30_del2       =   0.0000000000000000E+00
(PID.TID 0000.0001) %MON trcstat_ptracer31_max        =   8.7049046195833391E-04
(PID.TID 0000.0001) %MON trcstat_ptracer31_min        =   2.0364050910672865E-29
(PID.TID 0000.0001) %MON trcstat_ptracer31_mean       =   2.5957705673251406E-05
(PID.TID 0000.0001) %MON trcstat_ptracer31_sd         =   1.3603751217334078E-04
(PID.TID 0000.0001) %MON trcstat_ptracer31_del2       =   0.0000000000000000E+00
(PID.TID 0000.0001) %MON trcstat_ptracer32_max        =   8.7054553376049893E-04
(PID.TID 0000.0001) %MON trcstat_ptracer32_min        =   5.8982942073969959E-36
(PID.TID 0000.0001) %MON trcstat_ptracer32_mean       =   2.5957705673246297E-05
(PID.TID 0000.0001) %MON trcstat_ptracer32_sd         =   1.3608945110149483E-04
(PID.TID 0000.0001) %MON trcstat_ptracer32_del2       =   0.0000000000000000E+00
(PID.TID 0000.0001) %MON trcstat_ptracer33_max        =   8.7054553387091733E-04
(PID.TID 0000.0001) %MON trcstat_ptracer33_min        =   5.8982942073969959E-36
(PID.TID 0000.0001) %MON trcstat_ptracer33_mean       =   2.6053762005339256E-05
(PID.TID 0000.0001) %MON trcstat_ptracer33_sd         =   1.3666929897040807E-04
(PID.TID 0000.0001) %MON trcstat_ptracer33_del2       =   0.0000000000000000E+00
(PID.TID 0000.0001) %MON trcstat_ptracer34_max        =   8.7049046216055475E-04
(PID.TID 0000.0001) %MON trcstat_ptracer34_min        =   2.0364050910673092E-29
(PID.TID 0000.0001) %MON trcstat_ptracer34_mean       =   2.5957705678904555E-05
(PID.TID 0000.0001) %MON trcstat_ptracer34_sd         =   1.3603751220377515E-04
(PID.TID 0000.0001) %MON trcstat_ptracer34_del2       =   0.0000000000000000E+00
(PID.TID 0000.0001) %MON trcstat_ptracer35_max        =   8.7049046216055475E-04
(PID.TID 0000.0001) %MON trcstat_ptracer35_min        =   2.0364050910673092E-29
(PID.TID 0000.0001) %MON trcstat_ptracer35_mean       =   2.5957705678904548E-05
(PID.TID 0000.0001) %MON trcstat_ptracer35_sd         =   1.3603751220377512E-04
(PID.TID 0000.0001) %MON trcstat_ptracer35_del2       =   0.0000000000000000E+00
(PID.TID 0000.0001) %MON trcstat_ptracer36_max        =   8.7054553376049893E-04
(PID.TID 0000.0001) %MON trcstat_ptracer36_min        =   5.8982942073969959E-36
(PID.TID 0000.0001) %MON trcstat_ptracer36_mean       =   2.5957705673251986E-05
(PID.TID 0000.0001) %MON trcstat_ptracer36_sd         =   1.3608945110152911E-04
(PID.TID 0000.0001) %MON trcstat_ptracer36_del2       =   0.0000000000000000E+00
(PID.TID 0000.0001) %MON trcstat_ptracer37_max        =   8.7049046611546125E-04
(PID.TID 0000.0001) %MON trcstat_ptracer37_min        =   2.0364050910673092E-29
(PID.TID 0000.0001) %MON trcstat_ptracer37_mean       =   2.5997127925628104E-05
(PID.TID 0000.0001) %MON trcstat_ptracer37_sd         =   1.3627386490394622E-04
(PID.TID 0000.0001) %MON trcstat_ptracer37_del2       =   0.0000000000000000E+00
(PID.TID 0000.0001) %MON trcstat_ptracer38_max        =   8.7049046195833391E-04
(PID.TID 0000.0001) %MON trcstat_ptracer38_min        =   2.0364050910672865E-29
(PID.TID 0000.0001) %MON trcstat_ptracer38_mean       =   2.5957705673252453E-05
(PID.TID 0000.0001) %MON trcstat_ptracer38_sd         =   1.3603751217334707E-04
(PID.TID 0000.0001) %MON trcstat_ptracer38_del2       =   0.0000000000000000E+00
(PID.TID 0000.0001) %MON trcstat_ptracer39_max        =   8.7049046414536084E-04
(PID.TID 0000.0001) %MON trcstat_ptracer39_min        =   2.0364050910672865E-29
(PID.TID 0000.0001) %MON trcstat_ptracer39_mean       =   2.5962466432629651E-05
(PID.TID 0000.0001) %MON trcstat_ptracer39_sd         =   1.3606629442074921E-04
(PID.TID 0000.0001) %MON trcstat_ptracer39_del2       =   0.0000000000000000E+00
(PID.TID 0000.0001) %MON trcstat_ptracer40_max        =   8.7049046668064185E-04
(PID.TID 0000.0001) %MON trcstat_ptracer40_min        =   2.0364050910673092E-29
(PID.TID 0000.0001) %MON trcstat_ptracer40_mean       =   2.6071714049961284E-05
(PID.TID 0000.0001) %MON trcstat_ptracer40_sd         =   1.3672363687687865E-04
(PID.TID 0000.0001) %MON trcstat_ptracer40_del2       =   0.0000000000000000E+00
(PID.TID 0000.0001) %MON trcstat_ptracer41_max        =   8.7054553376049893E-04
(PID.TID 0000.0001) %MON trcstat_ptracer41_min        =   5.8982942073969959E-36
(PID.TID 0000.0001) %MON trcstat_ptracer41_mean       =   2.5957705673247385E-05
(PID.TID 0000.0001) %MON trcstat_ptracer41_sd         =   1.3608945110150136E-04
(PID.TID 0000.0001) %MON trcstat_ptracer41_del2       =   0.0000000000000000E+00
(PID.TID 0000.0001) %MON trcstat_ptracer42_max        =   8.7049046195833391E-04
(PID.TID 0000.0001) %MON trcstat_ptracer42_min        =   2.0364050910672865E-29
(PID.TID 0000.0001) %MON trcstat_ptracer42_mean       =   2.5957705673250309E-05
(PID.TID 0000.0001) %MON trcstat_ptracer42_sd         =   1.3603751217333419E-04
(PID.TID 0000.0001) %MON trcstat_ptracer42_del2       =   0.0000000000000000E+00
(PID.TID 0000.0001) %MON trcstat_ptracer43_max        =   8.7054553376049893E-04
(PID.TID 0000.0001) %MON trcstat_ptracer43_min        =   5.8982942073969959E-36
(PID.TID 0000.0001) %MON trcstat_ptracer43_mean       =   2.5957705673245860E-05
(PID.TID 0000.0001) %MON trcstat_ptracer43_sd         =   1.3608945110149217E-04
(PID.TID 0000.0001) %MON trcstat_ptracer43_del2       =   0.0000000000000000E+00
(PID.TID 0000.0001) %MON trcstat_ptracer44_max        =   8.7054553376049893E-04
(PID.TID 0000.0001) %MON trcstat_ptracer44_min        =   5.8982942073969959E-36
(PID.TID 0000.0001) %MON trcstat_ptracer44_mean       =   2.5957705673245386E-05
(PID.TID 0000.0001) %MON trcstat_ptracer44_sd         =   1.3608945110148932E-04
(PID.TID 0000.0001) %MON trcstat_ptracer44_del2       =   0.0000000000000000E+00
(PID.TID 0000.0001) %MON trcstat_ptracer45_max        =   8.7054553376049893E-04
(PID.TID 0000.0001) %MON trcstat_ptracer45_min        =   5.8982942073969959E-36
(PID.TID 0000.0001) %MON trcstat_ptracer45_mean       =   2.5957705673246253E-05
(PID.TID 0000.0001) %MON trcstat_ptracer45_sd         =   1.3608945110149453E-04
(PID.TID 0000.0001) %MON trcstat_ptracer45_del2       =   0.0000000000000000E+00
(PID.TID 0000.0001) %MON trcstat_ptracer46_max        =   8.7054553376049893E-04
(PID.TID 0000.0001) %MON trcstat_ptracer46_min        =   5.8982942073969959E-36
(PID.TID 0000.0001) %MON trcstat_ptracer46_mean       =   2.5957705673246216E-05
(PID.TID 0000.0001) %MON trcstat_ptracer46_sd         =   1.3608945110149431E-04
(PID.TID 0000.0001) %MON trcstat_ptracer46_del2       =   0.0000000000000000E+00
(PID.TID 0000.0001) %MON trcstat_ptracer47_max        =   8.7049046673606486E-04
(PID.TID 0000.0001) %MON trcstat_ptracer47_min        =   2.0364050910672865E-29
(PID.TID 0000.0001) %MON trcstat_ptracer47_mean       =   2.6071106513845427E-05
(PID.TID 0000.0001) %MON trcstat_ptracer47_sd         =   1.3671996121211667E-04
(PID.TID 0000.0001) %MON trcstat_ptracer47_del2       =   0.0000000000000000E+00
(PID.TID 0000.0001) %MON trcstat_ptracer48_max        =   8.7054553376049893E-04
(PID.TID 0000.0001) %MON trcstat_ptracer48_min        =   5.8982942073969959E-36
(PID.TID 0000.0001) %MON trcstat_ptracer48_mean       =   2.5957705673253128E-05
(PID.TID 0000.0001) %MON trcstat_ptracer48_sd         =   1.3608945110153600E-04
(PID.TID 0000.0001) %MON trcstat_ptracer48_del2       =   0.0000000000000000E+00
(PID.TID 0000.0001) %MON trcstat_ptracer49_max        =   8.7049046640956225E-04
(PID.TID 0000.0001) %MON trcstat_ptracer49_min        =   2.0364050910672865E-29
(PID.TID 0000.0001) %MON trcstat_ptracer49_mean       =   2.6074253364962072E-05
(PID.TID 0000.0001) %MON trcstat_ptracer49_sd         =   1.3673906724750903E-04
(PID.TID 0000.0001) %MON trcstat_ptracer49_del2       =   0.0000000000000000E+00
(PID.TID 0000.0001) %MON trcstat_ptracer50_max        =   8.7054553386697669E-04
(PID.TID 0000.0001) %MON trcstat_ptracer50_min        =   5.8982942073969959E-36
(PID.TID 0000.0001) %MON trcstat_ptracer50_mean       =   2.6042873558999716E-05
(PID.TID 0000.0001) %MON trcstat_ptracer50_sd         =   1.3660285148197490E-04
(PID.TID 0000.0001) %MON trcstat_ptracer50_del2       =   0.0000000000000000E+00
(PID.TID 0000.0001) %MON trcstat_ptracer51_max        =   8.7049046589245680E-04
(PID.TID 0000.0001) %MON trcstat_ptracer51_min        =   2.0364050910672865E-29
(PID.TID 0000.0001) %MON trcstat_ptracer51_mean       =   2.6006359372262483E-05
(PID.TID 0000.0001) %MON trcstat_ptracer51_sd         =   1.3632924894381131E-04
(PID.TID 0000.0001) %MON trcstat_ptracer51_del2       =   0.0000000000000000E+00
(PID.TID 0000.0001) %MON trcstat_ptracer52_max        =   8.7054553413601094E-04
(PID.TID 0000.0001) %MON trcstat_ptracer52_min        =   5.8982942073969959E-36
(PID.TID 0000.0001) %MON trcstat_ptracer52_mean       =   2.6057210493204313E-05
(PID.TID 0000.0001) %MON trcstat_ptracer52_sd         =   1.3668979875950172E-04
(PID.TID 0000.0001) %MON trcstat_ptracer52_del2       =   0.0000000000000000E+00
(PID.TID 0000.0001) %MON trcstat_ptracer53_max        =   8.7054553376049893E-04
(PID.TID 0000.0001) %MON trcstat_ptracer53_min        =   5.8982942073969959E-36
(PID.TID 0000.0001) %MON trcstat_ptracer53_mean       =   2.5957705673249509E-05
(PID.TID 0000.0001) %MON trcstat_ptracer53_sd         =   1.3608945110151418E-04
(PID.TID 0000.0001) %MON trcstat_ptracer53_del2       =   0.0000000000000000E+00
(PID.TID 0000.0001) %MON trcstat_ptracer54_max        =   8.7049046216055475E-04
(PID.TID 0000.0001) %MON trcstat_ptracer54_min        =   2.0364050910673092E-29
(PID.TID 0000.0001) %MON trcstat_ptracer54_mean       =   2.5957705678901458E-05
(PID.TID 0000.0001) %MON trcstat_ptracer54_sd         =   1.3603751220375655E-04
(PID.TID 0000.0001) %MON trcstat_ptracer54_del2       =   0.0000000000000000E+00
(PID.TID 0000.0001) %MON trcstat_ptracer55_max        =   8.7054553376049893E-04
(PID.TID 0000.0001) %MON trcstat_ptracer55_min        =   5.8982942073969959E-36
(PID.TID 0000.0001) %MON trcstat_ptracer55_mean       =   2.5957705673248713E-05
(PID.TID 0000.0001) %MON trcstat_ptracer55_sd         =   1.3608945110150938E-04
(PID.TID 0000.0001) %MON trcstat_ptracer55_del2       =   0.0000000000000000E+00
(PID.TID 0000.0001) %MON trcstat_ptracer56_max        =   8.7054553376049893E-04
(PID.TID 0000.0001) %MON trcstat_ptracer56_min        =   5.8982942073969959E-36
(PID.TID 0000.0001) %MON trcstat_ptracer56_mean       =   2.5957705673253399E-05
(PID.TID 0000.0001) %MON trcstat_ptracer56_sd         =   1.3608945110153760E-04
(PID.TID 0000.0001) %MON trcstat_ptracer56_del2       =   0.0000000000000000E+00
(PID.TID 0000.0001) %MON trcstat_ptracer57_max        =   8.7054553376049893E-04
(PID.TID 0000.0001) %MON trcstat_ptracer57_min        =   5.8982942073969959E-36
(PID.TID 0000.0001) %MON trcstat_ptracer57_mean       =   2.5957705673250810E-05
(PID.TID 0000.0001) %MON trcstat_ptracer57_sd         =   1.3608945110152199E-04
(PID.TID 0000.0001) %MON trcstat_ptracer57_del2       =   0.0000000000000000E+00
(PID.TID 0000.0001) %MON trcstat_ptracer58_max        =   8.7049046216055475E-04
(PID.TID 0000.0001) %MON trcstat_ptracer58_min        =   2.0364050910673092E-29
(PID.TID 0000.0001) %MON trcstat_ptracer58_mean       =   2.5957705678904579E-05
(PID.TID 0000.0001) %MON trcstat_ptracer58_sd         =   1.3603751220377531E-04
(PID.TID 0000.0001) %MON trcstat_ptracer58_del2       =   0.0000000000000000E+00
(PID.TID 0000.0001) %MON trcstat_ptracer59_max        =   8.7054553376049893E-04
(PID.TID 0000.0001) %MON trcstat_ptracer59_min        =   5.8982942073969959E-36
(PID.TID 0000.0001) %MON trcstat_ptracer59_mean       =   2.5957705673247852E-05
(PID.TID 0000.0001) %MON trcstat_ptracer59_sd         =   1.3608945110150418E-04
(PID.TID 0000.0001) %MON trcstat_ptracer59_del2       =   0.0000000000000000E+00
(PID.TID 0000.0001) %MON trcstat_ptracer60_max        =   8.7049046195833391E-04
(PID.TID 0000.0001) %MON trcstat_ptracer60_min        =   2.0364050910672865E-29
(PID.TID 0000.0001) %MON trcstat_ptracer60_mean       =   2.5957705673252006E-05
(PID.TID 0000.0001) %MON trcstat_ptracer60_sd         =   1.3603751217334436E-04
(PID.TID 0000.0001) %MON trcstat_ptracer60_del2       =   0.0000000000000000E+00
(PID.TID 0000.0001) %MON trcstat_ptracer61_max        =   8.7054553376049893E-04
(PID.TID 0000.0001) %MON trcstat_ptracer61_min        =   5.8982942073969959E-36
(PID.TID 0000.0001) %MON trcstat_ptracer61_mean       =   2.5957705673253341E-05
(PID.TID 0000.0001) %MON trcstat_ptracer61_sd         =   1.3608945110153725E-04
(PID.TID 0000.0001) %MON trcstat_ptracer61_del2       =   0.0000000000000000E+00
(PID.TID 0000.0001) %MON trcstat_ptracer62_max        =   8.7049046195833391E-04
(PID.TID 0000.0001) %MON trcstat_ptracer62_min        =   2.0364050910672865E-29
(PID.TID 0000.0001) %MON trcstat_ptracer62_mean       =   2.5957705673250410E-05
(PID.TID 0000.0001) %MON trcstat_ptracer62_sd         =   1.3603751217333479E-04
(PID.TID 0000.0001) %MON trcstat_ptracer62_del2       =   0.0000000000000000E+00
(PID.TID 0000.0001) %MON trcstat_ptracer63_max        =   8.7054553380867567E-04
(PID.TID 0000.0001) %MON trcstat_ptracer63_min        =   5.8982942073969959E-36
(PID.TID 0000.0001) %MON trcstat_ptracer63_mean       =   2.6001276319195498E-05
(PID.TID 0000.0001) %MON trcstat_ptracer63_sd         =   1.3635082396485626E-04
(PID.TID 0000.0001) %MON trcstat_ptracer63_del2       =   0.0000000000000000E+00
(PID.TID 0000.0001) %MON trcstat_ptracer64_max        =   8.7049046562326859E-04
(PID.TID 0000.0001) %MON trcstat_ptracer64_min        =   2.0364050910672865E-29
(PID.TID 0000.0001) %MON trcstat_ptracer64_mean       =   2.6068544492662246E-05
(PID.TID 0000.0001) %MON trcstat_ptracer64_sd         =   1.3670434541230081E-04
(PID.TID 0000.0001) %MON trcstat_ptracer64_del2       =   0.0000000000000000E+00
(PID.TID 0000.0001) %MON trcstat_ptracer65_max        =   8.7049046195833391E-04
(PID.TID 0000.0001) %MON trcstat_ptracer65_min        =   2.0364050910672865E-29
(PID.TID 0000.0001) %MON trcstat_ptracer65_mean       =   2.5957705673253006E-05
(PID.TID 0000.0001) %MON trcstat_ptracer65_sd         =   1.3603751217335035E-04
(PID.TID 0000.0001) %MON trcstat_ptracer65_del2       =   0.0000000000000000E+00
(PID.TID 0000.0001) %MON trcstat_ptracer66_max        =   8.7049046195833391E-04
(PID.TID 0000.0001) %MON trcstat_ptracer66_min        =   2.0364050910672865E-29
(PID.TID 0000.0001) %MON trcstat_ptracer66_mean       =   2.5957705673252545E-05
(PID.TID 0000.0001) %MON trcstat_ptracer66_sd         =   1.3603751217334764E-04
(PID.TID 0000.0001) %MON trcstat_ptracer66_del2       =   0.0000000000000000E+00
(PID.TID 0000.0001) %MON trcstat_ptracer67_max        =   8.7049046195833391E-04
(PID.TID 0000.0001) %MON trcstat_ptracer67_min        =   2.0364050910672865E-29
(PID.TID 0000.0001) %MON trcstat_ptracer67_mean       =   2.5957705673251745E-05
(PID.TID 0000.0001) %MON trcstat_ptracer67_sd         =   1.3603751217334281E-04
(PID.TID 0000.0001) %MON trcstat_ptracer67_del2       =   0.0000000000000000E+00
(PID.TID 0000.0001) %MON trcstat_ptracer68_max        =   8.7054553391795761E-04
(PID.TID 0000.0001) %MON trcstat_ptracer68_min        =   5.8982942073969959E-36
(PID.TID 0000.0001) %MON trcstat_ptracer68_mean       =   2.6008185438432604E-05
(PID.TID 0000.0001) %MON trcstat_ptracer68_sd         =   1.3639284470000197E-04
(PID.TID 0000.0001) %MON trcstat_ptracer68_del2       =   0.0000000000000000E+00
(PID.TID 0000.0001) %MON trcstat_ptracer69_max        =   8.7054553376049893E-04
(PID.TID 0000.0001) %MON trcstat_ptracer69_min        =   5.8982942073969959E-36
(PID.TID 0000.0001) %MON trcstat_ptracer69_mean       =   2.5957705673254229E-05
(PID.TID 0000.0001) %MON trcstat_ptracer69_sd         =   1.3608945110154261E-04
(PID.TID 0000.0001) %MON trcstat_ptracer69_del2       =   0.0000000000000000E+00
(PID.TID 0000.0001) %MON trcstat_ptracer70_max        =   8.7049046216055475E-04
(PID.TID 0000.0001) %MON trcstat_ptracer70_min        =   2.0364050910673092E-29
(PID.TID 0000.0001) %MON trcstat_ptracer70_mean       =   2.5957705678904311E-05
(PID.TID 0000.0001) %MON trcstat_ptracer70_sd         =   1.3603751220377371E-04
(PID.TID 0000.0001) %MON trcstat_ptracer70_del2       =   0.0000000000000000E+00
(PID.TID 0000.0001) %MON trcstat_ptracer71_max        =   8.7049046216055475E-04
(PID.TID 0000.0001) %MON trcstat_ptracer71_min        =   2.0364050910673092E-29
(PID.TID 0000.0001) %MON trcstat_ptracer71_mean       =   2.5957705678902983E-05
(PID.TID 0000.0001) %MON trcstat_ptracer71_sd         =   1.3603751220376571E-04
(PID.TID 0000.0001) %MON trcstat_ptracer71_del2       =   0.0000000000000000E+00
(PID.TID 0000.0001) %MON trcstat_ptracer72_max        =   8.7049046195833391E-04
(PID.TID 0000.0001) %MON trcstat_ptracer72_min        =   2.0364050910672865E-29
(PID.TID 0000.0001) %MON trcstat_ptracer72_mean       =   2.5957705673250393E-05
(PID.TID 0000.0001) %MON trcstat_ptracer72_sd         =   1.3603751217333468E-04
(PID.TID 0000.0001) %MON trcstat_ptracer72_del2       =   0.0000000000000000E+00
(PID.TID 0000.0001) %MON trcstat_ptracer73_max        =   8.7049046602493286E-04
(PID.TID 0000.0001) %MON trcstat_ptracer73_min        =   2.0364050910672865E-29
(PID.TID 0000.0001) %MON trcstat_ptracer73_mean       =   2.6070235019666135E-05
(PID.TID 0000.0001) %MON trcstat_ptracer73_sd         =   1.3671462701585733E-04
(PID.TID 0000.0001) %MON trcstat_ptracer73_del2       =   0.0000000000000000E+00
(PID.TID 0000.0001) %MON trcstat_ptracer74_max        =   8.7049046216055475E-04
(PID.TID 0000.0001) %MON trcstat_ptracer74_min        =   2.0364050910673092E-29
(PID.TID 0000.0001) %MON trcstat_ptracer74_mean       =   2.5957705678904342E-05
(PID.TID 0000.0001) %MON trcstat_ptracer74_sd         =   1.3603751220377390E-04
(PID.TID 0000.0001) %MON trcstat_ptracer74_del2       =   0.0000000000000000E+00
(PID.TID 0000.0001) %MON trcstat_ptracer75_max        =   8.7049046672413668E-04
(PID.TID 0000.0001) %MON trcstat_ptracer75_min        =   2.0364050910672865E-29
(PID.TID 0000.0001) %MON trcstat_ptracer75_mean       =   2.6080287903064545E-05
(PID.TID 0000.0001) %MON trcstat_ptracer75_sd         =   1.3677579114075708E-04
(PID.TID 0000.0001) %MON trcstat_ptracer75_del2       =   0.0000000000000000E+00
(PID.TID 0000.0001) %MON trcstat_ptracer76_max        =   8.7049046619428383E-04
(PID.TID 0000.0001) %MON trcstat_ptracer76_min        =   2.0364050910673092E-29
(PID.TID 0000.0001) %MON trcstat_ptracer76_mean       =   2.5987166730193583E-05
(PID.TID 0000.0001) %MON trcstat_ptracer76_sd         =   1.3621422767040746E-04
(PID.TID 0000.0001) %MON trcstat_ptracer76_del2       =   0.0000000000000000E+00
(PID.TID 0000.0001) %MON trcstat_ptracer77_max        =   8.7049046195833391E-04
(PID.TID 0000.0001) %MON trcstat_ptracer77_min        =   2.0364050910672865E-29
(PID.TID 0000.0001) %MON trcstat_ptracer77_mean       =   2.5957705673254022E-05
(PID.TID 0000.0001) %MON trcstat_ptracer77_sd         =   1.3603751217335655E-04
(PID.TID 0000.0001) %MON trcstat_ptracer77_del2       =   0.0000000000000000E+00
(PID.TID 0000.0001) %MON trcstat_ptracer78_max        =   8.7049046468454239E-04
(PID.TID 0000.0001) %MON trcstat_ptracer78_min        =   2.0364050910672865E-29
(PID.TID 0000.0001) %MON trcstat_ptracer78_mean       =   2.5967716033595677E-05
(PID.TID 0000.0001) %MON trcstat_ptracer78_sd         =   1.3609771010091105E-04
(PID.TID 0000.0001) %MON trcstat_ptracer78_del2       =   0.0000000000000000E+00
(PID.TID 0000.0001) %MON trcstat_ptracer79_max        =   8.7049046195833391E-04
(PID.TID 0000.0001) %MON trcstat_ptracer79_min        =   2.0364050910672865E-29
(PID.TID 0000.0001) %MON trcstat_ptracer79_mean       =   2.5957705673252199E-05
(PID.TID 0000.0001) %MON trcstat_ptracer79_sd         =   1.3603751217334555E-04
(PID.TID 0000.0001) %MON trcstat_ptracer79_del2       =   0.0000000000000000E+00
(PID.TID 0000.0001) %MON trcstat_ptracer80_max        =   8.7049046195833391E-04
(PID.TID 0000.0001) %MON trcstat_ptracer80_min        =   2.0364050910672865E-29
(PID.TID 0000.0001) %MON trcstat_ptracer80_mean       =   2.5957705673250146E-05
(PID.TID 0000.0001) %MON trcstat_ptracer80_sd         =   1.3603751217333324E-04
(PID.TID 0000.0001) %MON trcstat_ptracer80_del2       =   0.0000000000000000E+00
(PID.TID 0000.0001) %MON trcstat_ptracer81_max        =   8.7049046695007216E-04
(PID.TID 0000.0001) %MON trcstat_ptracer81_min        =   2.0364050910673092E-29
(PID.TID 0000.0001) %MON trcstat_ptracer81_mean       =   2.6022591355023752E-05
(PID.TID 0000.0001) %MON trcstat_ptracer81_sd         =   1.3642693471224284E-04
(PID.TID 0000.0001) %MON trcstat_ptracer81_del2       =   0.0000000000000000E+00
(PID.TID 0000.0001) %MON trcstat_ptracer82_max        =   8.7054553376049893E-04
(PID.TID 0000.0001) %MON trcstat_ptracer82_min        =   5.8982942073969959E-36
(PID.TID 0000.0001) %MON trcstat_ptracer82_mean       =   2.5957705673247642E-05
(PID.TID 0000.0001) %MON trcstat_ptracer82_sd         =   1.3608945110150296E-04
(PID.TID 0000.0001) %MON trcstat_ptracer82_del2       =   0.0000000000000000E+00
(PID.TID 0000.0001) %MON trcstat_ptracer83_max        =   8.7049046216055475E-04
(PID.TID 0000.0001) %MON trcstat_ptracer83_min        =   2.0364050910673092E-29
(PID.TID 0000.0001) %MON trcstat_ptracer83_mean       =   2.5957705678901645E-05
(PID.TID 0000.0001) %MON trcstat_ptracer83_sd         =   1.3603751220375766E-04
(PID.TID 0000.0001) %MON trcstat_ptracer83_del2       =   0.0000000000000000E+00
(PID.TID 0000.0001) %MON trcstat_ptracer84_max        =   8.7054553376049893E-04
(PID.TID 0000.0001) %MON trcstat_ptracer84_min        =   5.8982942073969959E-36
(PID.TID 0000.0001) %MON trcstat_ptracer84_mean       =   2.5957705673245830E-05
(PID.TID 0000.0001) %MON trcstat_ptracer84_sd         =   1.3608945110149201E-04
(PID.TID 0000.0001) %MON trcstat_ptracer84_del2       =   0.0000000000000000E+00
(PID.TID 0000.0001) %MON trcstat_ptracer85_max        =   8.7049046195833391E-04
(PID.TID 0000.0001) %MON trcstat_ptracer85_min        =   2.0364050910672865E-29
(PID.TID 0000.0001) %MON trcstat_ptracer85_mean       =   2.5957705673251684E-05
(PID.TID 0000.0001) %MON trcstat_ptracer85_sd         =   1.3603751217334246E-04
(PID.TID 0000.0001) %MON trcstat_ptracer85_del2       =   0.0000000000000000E+00
(PID.TID 0000.0001) %MON trcstat_ptracer86_max        =   8.7049046575469493E-04
(PID.TID 0000.0001) %MON trcstat_ptracer86_min        =   2.0364050910673092E-29
(PID.TID 0000.0001) %MON trcstat_ptracer86_mean       =   2.5974445588118292E-05
(PID.TID 0000.0001) %MON trcstat_ptracer86_sd         =   1.3613807269609863E-04
(PID.TID 0000.0001) %MON trcstat_ptracer86_del2       =   0.0000000000000000E+00
(PID.TID 0000.0001) %MON trcstat_ptracer87_max        =   8.7054553395195559E-04
(PID.TID 0000.0001) %MON trcstat_ptracer87_min        =   5.8982942073969959E-36
(PID.TID 0000.0001) %MON trcstat_ptracer87_mean       =   2.6046716513762308E-05
(PID.TID 0000.0001) %MON trcstat_ptracer87_sd         =   1.3662600042744667E-04
(PID.TID 0000.0001) %MON trcstat_ptracer87_del2       =   0.0000000000000000E+00
(PID.TID 0000.0001) %MON trcstat_ptracer88_max        =   8.7054553376049893E-04
(PID.TID 0000.0001) %MON trcstat_ptracer88_min        =   5.8982942073969959E-36
(PID.TID 0000.0001) %MON trcstat_ptracer88_mean       =   2.5957705673247480E-05
(PID.TID 0000.0001) %MON trcstat_ptracer88_sd         =   1.3608945110150193E-04
(PID.TID 0000.0001) %MON trcstat_ptracer88_del2       =   0.0000000000000000E+00
(PID.TID 0000.0001) %MON trcstat_ptracer89_max        =   8.7054553376049893E-04
(PID.TID 0000.0001) %MON trcstat_ptracer89_min        =   5.8982942073969959E-36
(PID.TID 0000.0001) %MON trcstat_ptracer89_mean       =   2.5957705673246416E-05
(PID.TID 0000.0001) %MON trcstat_ptracer89_sd         =   1.3608945110149553E-04
(PID.TID 0000.0001) %MON trcstat_ptracer89_del2       =   0.0000000000000000E+00
(PID.TID 0000.0001) %MON trcstat_ptracer90_max        =   8.7049046216055475E-04
(PID.TID 0000.0001) %MON trcstat_ptracer90_min        =   2.0364050910673092E-29
(PID.TID 0000.0001) %MON trcstat_ptracer90_mean       =   2.5957705678904382E-05
(PID.TID 0000.0001) %MON trcstat_ptracer90_sd         =   1.3603751220377414E-04
(PID.TID 0000.0001) %MON trcstat_ptracer90_del2       =   0.0000000000000000E+00
(PID.TID 0000.0001) %MON trcstat_ptracer91_max        =   8.7054553376049893E-04
(PID.TID 0000.0001) %MON trcstat_ptracer91_min        =   5.8982942073969959E-36
(PID.TID 0000.0001) %MON trcstat_ptracer91_mean       =   2.5957705673247080E-05
(PID.TID 0000.0001) %MON trcstat_ptracer91_sd         =   1.3608945110149949E-04
(PID.TID 0000.0001) %MON trcstat_ptracer91_del2       =   0.0000000000000000E+00
(PID.TID 0000.0001) %MON trcstat_ptracer92_max        =   8.7049046475502724E-04
(PID.TID 0000.0001) %MON trcstat_ptracer92_min        =   2.0364050910672865E-29
(PID.TID 0000.0001) %MON trcstat_ptracer92_mean       =   2.5967698188474280E-05
(PID.TID 0000.0001) %MON trcstat_ptracer92_sd         =   1.3609762874502602E-04
(PID.TID 0000.0001) %MON trcstat_ptracer92_del2       =   0.0000000000000000E+00
(PID.TID 0000.0001) %MON trcstat_ptracer93_max        =   8.7049046216055475E-04
(PID.TID 0000.0001) %MON trcstat_ptracer93_min        =   2.0364050910673092E-29
(PID.TID 0000.0001) %MON trcstat_ptracer93_mean       =   2.5957705678901679E-05
(PID.TID 0000.0001) %MON trcstat_ptracer93_sd         =   1.3603751220375788E-04
(PID.TID 0000.0001) %MON trcstat_ptracer93_del2       =   0.0000000000000000E+00
(PID.TID 0000.0001) %MON trcstat_ptracer94_max        =   8.7049046606170910E-04
(PID.TID 0000.0001) %MON trcstat_ptracer94_min        =   2.0364050910673092E-29
(PID.TID 0000.0001) %MON trcstat_ptracer94_mean       =   2.6064829243830612E-05
(PID.TID 0000.0001) %MON trcstat_ptracer94_sd         =   1.3668178059631753E-04
(PID.TID 0000.0001) %MON trcstat_ptracer94_del2       =   0.0000000000000000E+00
(PID.TID 0000.0001) %MON trcstat_ptracer95_max        =   8.7049046195833391E-04
(PID.TID 0000.0001) %MON trcstat_ptracer95_min        =   2.0364050910672865E-29
(PID.TID 0000.0001) %MON trcstat_ptracer95_mean       =   2.5957705673249912E-05
(PID.TID 0000.0001) %MON trcstat_ptracer95_sd         =   1.3603751217333183E-04
(PID.TID 0000.0001) %MON trcstat_ptracer95_del2       =   0.0000000000000000E+00
(PID.TID 0000.0001) %MON trcstat_ptracer96_max        =   8.7054553381836887E-04
(PID.TID 0000.0001) %MON trcstat_ptracer96_min        =   5.8982942073969959E-36
(PID.TID 0000.0001) %MON trcstat_ptracer96_mean       =   2.6013251296201252E-05
(PID.TID 0000.0001) %MON trcstat_ptracer96_sd         =   1.3642316522012531E-04
(PID.TID 0000.0001) %MON trcstat_ptracer96_del2       =   0.0000000000000000E+00
(PID.TID 0000.0001) %MON trcstat_ptracer97_max        =   1.2382156011183588E-07
(PID.TID 0000.0001) %MON trcstat_ptracer97_min        =   4.1431546047776925E-34
(PID.TID 0000.0001) %MON trcstat_ptracer97_mean       =   1.6374291298168867E-08
(PID.TID 0000.0001) %MON trcstat_ptracer97_sd         =   2.9949768159942411E-08
(PID.TID 0000.0001) %MON trcstat_ptracer97_del2       =   0.0000000000000000E+00
(PID.TID 0000.0001) %MON trcstat_ptracer98_max        =   1.2382363181992148E-07
(PID.TID 0000.0001) %MON trcstat_ptracer98_min        =   4.1431546047784477E-34
(PID.TID 0000.0001) %MON trcstat_ptracer98_mean       =   1.6374350152621186E-08
(PID.TID 0000.0001) %MON trcstat_ptracer98_sd         =   2.9949965485978383E-08
(PID.TID 0000.0001) %MON trcstat_ptracer98_del2       =   0.0000000000000000E+00
(PID.TID 0000.0001) // =======================================================
(PID.TID 0000.0001) // End MONITOR ptracers field statistics
(PID.TID 0000.0001) // =======================================================
 Computing Diagnostic #    140  TRAC01       Counter:       1   Parms: SMR     MR      
 Computing Diagnostic #    152  TRAC02       Counter:       1   Parms: SMR     MR      
 Computing Diagnostic #    164  TRAC03       Counter:       1   Parms: SMR     MR      
 Computing Diagnostic #    176  TRAC04       Counter:       1   Parms: SMR     MR      
 Computing Diagnostic #    188  TRAC05       Counter:       1   Parms: SMR     MR      
 Computing Diagnostic #    200  TRAC06       Counter:       1   Parms: SMR     MR      
 Computing Diagnostic #    212  TRAC07       Counter:       1   Parms: SMR     MR      
 Computing Diagnostic #    224  TRAC08       Counter:       1   Parms: SMR     MR      
 Computing Diagnostic #    236  TRAC09       Counter:       1   Parms: SMR     MR      
 Computing Diagnostic #    248  TRAC10       Counter:       1   Parms: SMR     MR      
 Computing Diagnostic #    260  TRAC11       Counter:       1   Parms: SMR     MR      
 Computing Diagnostic #    272  TRAC12       Counter:       1   Parms: SMR     MR      
 Computing Diagnostic #    284  TRAC13       Counter:       1   Parms: SMR     MR      
 Computing Diagnostic #    296  TRAC14       Counter:       1   Parms: SMR     MR      
 Computing Diagnostic #    308  TRAC15       Counter:       1   Parms: SMR     MR      
 Computing Diagnostic #    320  TRAC16       Counter:       1   Parms: SMR     MR      
 Computing Diagnostic #    332  TRAC17       Counter:       1   Parms: SMR     MR      
 Computing Diagnostic #    344  TRAC18       Counter:       1   Parms: SMR     MR      
 Computing Diagnostic #    356  TRAC19       Counter:       1   Parms: SMR     MR      
 Computing Diagnostic #    368  TRAC20       Counter:       1   Parms: SMR     MR      
 Computing Diagnostic #    380  TRAC21       Counter:       1   Parms: SMR     MR      
 Computing Diagnostic #    392  TRAC22       Counter:       1   Parms: SMR     MR      
 Computing Diagnostic #    404  TRAC23       Counter:       1   Parms: SMR     MR      
 Computing Diagnostic #    416  TRAC24       Counter:       1   Parms: SMR     MR      
 Computing Diagnostic #    428  TRAC25       Counter:       1   Parms: SMR     MR      
 Computing Diagnostic #    440  TRAC26       Counter:       1   Parms: SMR     MR      
 Computing Diagnostic #    452  TRAC27       Counter:       1   Parms: SMR     MR      
 Computing Diagnostic #    464  TRAC28       Counter:       1   Parms: SMR     MR      
 Computing Diagnostic #    476  TRAC29       Counter:       1   Parms: SMR     MR      
 Computing Diagnostic #    488  TRAC30       Counter:       1   Parms: SMR     MR      
 Computing Diagnostic #    500  TRAC31       Counter:       1   Parms: SMR     MR      
 Computing Diagnostic #    512  TRAC32       Counter:       1   Parms: SMR     MR      
 Computing Diagnostic #    524  TRAC33       Counter:       1   Parms: SMR     MR      
 Computing Diagnostic #    536  TRAC34       Counter:       1   Parms: SMR     MR      
 Computing Diagnostic #    548  TRAC35       Counter:       1   Parms: SMR     MR      
 Computing Diagnostic #    560  TRAC36       Counter:       1   Parms: SMR     MR      
 Computing Diagnostic #    572  TRAC37       Counter:       1   Parms: SMR     MR      
 Computing Diagnostic #    584  TRAC38       Counter:       1   Parms: SMR     MR      
 Computing Diagnostic #    596  TRAC39       Counter:       1   Parms: SMR     MR      
 Computing Diagnostic #    608  TRAC40       Counter:       1   Parms: SMR     MR      
 Computing Diagnostic #    620  TRAC41       Counter:       1   Parms: SMR     MR      
 Computing Diagnostic #    632  TRAC42       Counter:       1   Parms: SMR     MR      
 Computing Diagnostic #    644  TRAC43       Counter:       1   Parms: SMR     MR      
 Computing Diagnostic #    656  TRAC44       Counter:       1   Parms: SMR     MR      
 Computing Diagnostic #    668  TRAC45       Counter:       1   Parms: SMR     MR      
 Computing Diagnostic #    680  TRAC46       Counter:       1   Parms: SMR     MR      
 Computing Diagnostic #    692  TRAC47       Counter:       1   Parms: SMR     MR      
 Computing Diagnostic #    704  TRAC48       Counter:       1   Parms: SMR     MR      
 Computing Diagnostic #    716  TRAC49       Counter:       1   Parms: SMR     MR      
 Computing Diagnostic #    728  TRAC50       Counter:       1   Parms: SMR     MR      
 Computing Diagnostic #    740  TRAC51       Counter:       1   Parms: SMR     MR      
 Computing Diagnostic #    752  TRAC52       Counter:       1   Parms: SMR     MR      
 Computing Diagnostic #    764  TRAC53       Counter:       1   Parms: SMR     MR      
 Computing Diagnostic #    776  TRAC54       Counter:       1   Parms: SMR     MR      
 Computing Diagnostic #    788  TRAC55       Counter:       1   Parms: SMR     MR      
 Computing Diagnostic #    800  TRAC56       Counter:       1   Parms: SMR     MR      
 Computing Diagnostic #    812  TRAC57       Counter:       1   Parms: SMR     MR      
 Computing Diagnostic #    824  TRAC58       Counter:       1   Parms: SMR     MR      
 Computing Diagnostic #    836  TRAC59       Counter:       1   Parms: SMR     MR      
 Computing Diagnostic #    848  TRAC60       Counter:       1   Parms: SMR     MR      
 Computing Diagnostic #    860  TRAC61       Counter:       1   Parms: SMR     MR      
 Computing Diagnostic #    872  TRAC62       Counter:       1   Parms: SMR     MR      
 Computing Diagnostic #    884  TRAC63       Counter:       1   Parms: SMR     MR      
 Computing Diagnostic #    896  TRAC64       Counter:       1   Parms: SMR     MR      
 Computing Diagnostic #    908  TRAC65       Counter:       1   Parms: SMR     MR      
 Computing Diagnostic #    920  TRAC66       Counter:       1   Parms: SMR     MR      
 Computing Diagnostic #    932  TRAC67       Counter:       1   Parms: SMR     MR      
 Computing Diagnostic #    944  TRAC68       Counter:       1   Parms: SMR     MR      
 Computing Diagnostic #    956  TRAC69       Counter:       1   Parms: SMR     MR      
 Computing Diagnostic #    968  TRAC70       Counter:       1   Parms: SMR     MR      
 Computing Diagnostic #    980  TRAC71       Counter:       1   Parms: SMR     MR      
 Computing Diagnostic #    992  TRAC72       Counter:       1   Parms: SMR     MR      
 Computing Diagnostic #   1004  TRAC73       Counter:       1   Parms: SMR     MR      
 Computing Diagnostic #   1016  TRAC74       Counter:       1   Parms: SMR     MR      
 Computing Diagnostic #   1028  TRAC75       Counter:       1   Parms: SMR     MR      
 Computing Diagnostic #   1040  TRAC76       Counter:       1   Parms: SMR     MR      
 Computing Diagnostic #   1052  TRAC77       Counter:       1   Parms: SMR     MR      
 Computing Diagnostic #   1064  TRAC78       Counter:       1   Parms: SMR     MR      
 Computing Diagnostic #   1076  TRAC79       Counter:       1   Parms: SMR     MR      
 Computing Diagnostic #   1088  TRAC80       Counter:       1   Parms: SMR     MR      
 Computing Diagnostic #   1100  TRAC81       Counter:       1   Parms: SMR     MR      
 Computing Diagnostic #   1112  TRAC82       Counter:       1   Parms: SMR     MR      
 Computing Diagnostic #   1124  TRAC83       Counter:       1   Parms: SMR     MR      
 Computing Diagnostic #   1136  TRAC84       Counter:       1   Parms: SMR     MR      
 Computing Diagnostic #   1148  TRAC85       Counter:       1   Parms: SMR     MR      
 Computing Diagnostic #   1160  TRAC86       Counter:       1   Parms: SMR     MR      
 Computing Diagnostic #   1172  TRAC87       Counter:       1   Parms: SMR     MR      
 Computing Diagnostic #   1184  TRAC88       Counter:       1   Parms: SMR     MR      
 Computing Diagnostic #   1196  TRAC89       Counter:       1   Parms: SMR     MR      
 Computing Diagnostic #   1208  TRAC90       Counter:       1   Parms: SMR     MR      
 Computing Diagnostic #   1220  TRAC91       Counter:       1   Parms: SMR     MR      
 Computing Diagnostic #   1232  TRAC92       Counter:       1   Parms: SMR     MR      
 Computing Diagnostic #   1244  TRAC93       Counter:       1   Parms: SMR     MR      
 Computing Diagnostic #   1256  TRAC94       Counter:       1   Parms: SMR     MR      
 Computing Diagnostic #   1268  TRAC95       Counter:       1   Parms: SMR     MR      
 Computing Diagnostic #   1280  TRAC96       Counter:       1   Parms: SMR     MR      
 Computing Diagnostic #   1292  TRAC97       Counter:       1   Parms: SMR     MR      
 Computing Diagnostic #   1304  TRAC98       Counter:       1   Parms: SMR     MR      
(PID.TID 0000.0001) // =======================================================
(PID.TID 0000.0001) // Begin MONITOR EXF statistics
(PID.TID 0000.0001) // =======================================================
(PID.TID 0000.0001) %MON exf_tsnumber                 =                     3
(PID.TID 0000.0001) %MON exf_time_sec                 =   1.0800000000000000E+04
(PID.TID 0000.0001) %MON exf_ustress_max              =   0.0000000000000000E+00
(PID.TID 0000.0001) %MON exf_ustress_min              =   0.0000000000000000E+00
(PID.TID 0000.0001) %MON exf_ustress_mean             =   0.0000000000000000E+00
(PID.TID 0000.0001) %MON exf_ustress_sd               =   0.0000000000000000E+00
(PID.TID 0000.0001) %MON exf_ustress_del2             =   0.0000000000000000E+00
(PID.TID 0000.0001) %MON exf_vstress_max              =   0.0000000000000000E+00
(PID.TID 0000.0001) %MON exf_vstress_min              =   0.0000000000000000E+00
(PID.TID 0000.0001) %MON exf_vstress_mean             =   0.0000000000000000E+00
(PID.TID 0000.0001) %MON exf_vstress_sd               =   0.0000000000000000E+00
(PID.TID 0000.0001) %MON exf_vstress_del2             =   0.0000000000000000E+00
(PID.TID 0000.0001) %MON exf_hflux_max                =   0.0000000000000000E+00
(PID.TID 0000.0001) %MON exf_hflux_min                =   0.0000000000000000E+00
(PID.TID 0000.0001) %MON exf_hflux_mean               =   0.0000000000000000E+00
(PID.TID 0000.0001) %MON exf_hflux_sd                 =   0.0000000000000000E+00
(PID.TID 0000.0001) %MON exf_hflux_del2               =   0.0000000000000000E+00
(PID.TID 0000.0001) %MON exf_sflux_max                =   0.0000000000000000E+00
(PID.TID 0000.0001) %MON exf_sflux_min                =   0.0000000000000000E+00
(PID.TID 0000.0001) %MON exf_sflux_mean               =   0.0000000000000000E+00
(PID.TID 0000.0001) %MON exf_sflux_sd                 =   0.0000000000000000E+00
(PID.TID 0000.0001) %MON exf_sflux_del2               =   0.0000000000000000E+00
(PID.TID 0000.0001) %MON exf_uwind_max                =   0.0000000000000000E+00
(PID.TID 0000.0001) %MON exf_uwind_min                =   0.0000000000000000E+00
(PID.TID 0000.0001) %MON exf_uwind_mean               =   0.0000000000000000E+00
(PID.TID 0000.0001) %MON exf_uwind_sd                 =   0.0000000000000000E+00
(PID.TID 0000.0001) %MON exf_uwind_del2               =   0.0000000000000000E+00
(PID.TID 0000.0001) %MON exf_vwind_max                =   0.0000000000000000E+00
(PID.TID 0000.0001) %MON exf_vwind_min                =   0.0000000000000000E+00
(PID.TID 0000.0001) %MON exf_vwind_mean               =   0.0000000000000000E+00
(PID.TID 0000.0001) %MON exf_vwind_sd                 =   0.0000000000000000E+00
(PID.TID 0000.0001) %MON exf_vwind_del2               =   0.0000000000000000E+00
(PID.TID 0000.0001) %MON exf_wspeed_max               =   0.0000000000000000E+00
(PID.TID 0000.0001) %MON exf_wspeed_min               =   0.0000000000000000E+00
(PID.TID 0000.0001) %MON exf_wspeed_mean              =   0.0000000000000000E+00
(PID.TID 0000.0001) %MON exf_wspeed_sd                =   0.0000000000000000E+00
(PID.TID 0000.0001) %MON exf_wspeed_del2              =   0.0000000000000000E+00
(PID.TID 0000.0001) %MON exf_evap_max                 =   0.0000000000000000E+00
(PID.TID 0000.0001) %MON exf_evap_min                 =   0.0000000000000000E+00
(PID.TID 0000.0001) %MON exf_evap_mean                =   0.0000000000000000E+00
(PID.TID 0000.0001) %MON exf_evap_sd                  =   0.0000000000000000E+00
(PID.TID 0000.0001) %MON exf_evap_del2                =   0.0000000000000000E+00
(PID.TID 0000.0001) // =======================================================
(PID.TID 0000.0001) // End MONITOR EXF statistics
(PID.TID 0000.0001) // =======================================================
 Local pointing vectors
 no(2) =   0.27363063147685535      -0.12470066308196398       0.95371695074822704     
 ea(2) =   0.41469324265623930       0.90996127087654310        0.0000000000000000     
 up(2) =   0.86784548855935806      -0.39549997488200311      -0.30070579950427312     
 CDOM           1           1   5.0676358982615971E-003   100.00000000000000        2.0137527074704766     
 CDOM           1           2   5.0676358982615971E-003   100.00000000000000        1.4190675485932573     
 CDOM           1           3   5.0676358982615971E-003   100.00000000000000        1.0000000000000000     
 CDOM           1           4   5.0676358982615971E-003   100.00000000000000       0.70468808971871344     
 CDOM           1           5   5.0676358982615971E-003   100.00000000000000       0.49658530379140947     
 CDOM           1           6   5.0676358982615971E-003   100.00000000000000       0.34993774911115533     
 CDOM           1           7   5.0676358982615971E-003   100.00000000000000       0.24659696394160643     
 CDOM           1           8   5.0676358982615971E-003   100.00000000000000       0.17377394345044514     
 CDOM           1           9   5.0676358982615971E-003   100.00000000000000       0.12245642825298191     
 CDOM           1          10   5.0676358982615971E-003   100.00000000000000        8.6293586499370495E-002
 CDOM           1          11   5.0676358982615971E-003   100.00000000000000        6.0810062625217952E-002
 CDOM           1          12   5.0676358982615971E-003   100.00000000000000        4.2852126867040187E-002
 CDOM           1          13   5.0676358982615971E-003   100.00000000000000        3.0197383422318501E-002
 ac           1   3.1319169657328655E-005   3.0400000000000000E-002
 ac           2   7.1354828487756421E-005   3.8500000000000000E-002
 ac           3   3.1690884711848056E-005   3.0400000000000000E-002
 ac           4   5.4800636439795170E-005   3.0400000000000000E-002
 ac           5   5.0534916801754842E-005   2.9200000000000000E-002
 ac           6   2.6233858364543016E-005   3.8500000000000000E-002
 ac           7   7.3638475579561059E-005   2.4500000000000001E-002
 ac           8   4.0255633423935265E-005   2.4500000000000001E-002
 ac           9   2.0814918692495142E-005   2.9200000000000000E-002
 ac          10   5.7974712067036985E-005   2.9200000000000000E-002
 ac          11   1.8311540588081885E-005   3.0400000000000000E-002
 ac          12   3.8007569260090228E-005   2.4500000000000001E-002
 ac          13   3.1702253720277090E-005   3.0400000000000000E-002
 ac          14   3.9321387677946920E-005   2.4500000000000001E-002
 ac          15   7.1758340943936562E-005   3.0400000000000000E-002
 ac          16   3.1608345619555666E-005   3.0400000000000000E-002
 ac          17   3.1373361119852330E-005   3.0400000000000000E-002
 ac          18   2.1562469651703573E-005   2.9200000000000000E-002
 ac          19   3.1566747076679432E-005   3.0400000000000000E-002
 ac          20   3.0937461747231161E-005   3.0400000000000000E-002
 ac          21   3.1624812173537483E-005   3.0400000000000000E-002
 ac          22   8.0550907448307218E-005   3.0400000000000000E-002
 ac          23   2.7094463443952927E-005   3.8500000000000000E-002
 ac          24   3.1211362652022456E-005   3.0400000000000000E-002
 ac          25   3.8121478772320281E-005   2.4500000000000001E-002
 ac          26   4.0243767129796089E-005   2.4500000000000001E-002
 ac          27   3.8042976406604223E-005   2.4500000000000001E-002
 ac          28   2.6190385256349512E-005   3.8500000000000000E-002
 ac          29   7.9355148214850768E-005   3.0400000000000000E-002
 ac          30   2.1298613939753946E-005   2.9200000000000000E-002
 ac          31   8.3009333572797914E-005   3.0400000000000000E-002
 ac          32   6.3676306429108967E-005   3.0400000000000000E-002
 ac          33   3.1523839255752238E-005   3.0400000000000000E-002
 ac          34   4.7640175307793799E-005   2.9200000000000000E-002
 ac          35   2.1600984063227484E-005   2.9200000000000000E-002
 ac          36   3.1564012760627222E-005   3.0400000000000000E-002
 ac          37   1.7919726259322052E-005   3.0400000000000000E-002
 ac          38   1.8078853726838080E-005   3.0400000000000000E-002
 ac          39   2.1541995057864972E-005   2.9200000000000000E-002
 ac          40   3.1494694541112205E-005   3.0400000000000000E-002
 ac          41   2.1468402032905839E-005   2.9200000000000000E-002
 ac          42   3.1714102547188224E-005   3.0400000000000000E-002
 ac          43   1.7778252298474784E-005   3.0400000000000000E-002
 ac          44   3.1368428882504003E-005   3.0400000000000000E-002
 ac          45   1.1165126023738925E-004   2.4500000000000001E-002
 ac          46   8.0574093269195445E-005   3.0400000000000000E-002
 ac          47   3.1354583234543789E-005   3.0400000000000000E-002
 ac          48   3.1608151948866649E-005   3.0400000000000000E-002
 ac          49   3.1048060447443192E-005   3.0400000000000000E-002
 ac          50   3.3246824049904919E-005   3.0400000000000000E-002
 ac          51   1.7371985920925270E-005   3.0400000000000000E-002
 ac          52   3.1406429380286539E-005   3.0400000000000000E-002
 ac          53   3.1693883770654846E-005   3.0400000000000000E-002
 ac          54   3.0989096970678724E-005   3.0400000000000000E-002
 ac          55   8.0737903204565755E-005   3.0400000000000000E-002
 ac          56   3.1344228792327298E-005   3.0400000000000000E-002
 ac          57   8.7145532163397164E-005   3.0400000000000000E-002
 ac          58   3.1674095063052023E-005   3.0400000000000000E-002
 ac          59   3.1065366052938518E-005   3.0400000000000000E-002
 ac          60   3.1454562100225585E-005   3.0400000000000000E-002
 ac          61   3.1593244478634454E-005   3.0400000000000000E-002
 ac          62   3.1719206434546289E-005   3.0400000000000000E-002
 ac          63   3.9441838840118580E-005   3.0400000000000000E-002
 ac          64   2.1574643784326884E-005   2.9200000000000000E-002
 ac          65   3.1717112291673676E-005   3.0400000000000000E-002
 ac          66   2.6720115059466137E-005   3.8500000000000000E-002
 ac          67   3.1703732990349086E-005   3.0400000000000000E-002
 ac          68   3.1686900800306812E-005   3.0400000000000000E-002
 ac          69   6.3991272108884624E-005   3.0400000000000000E-002
 ac          70   2.7406178250141283E-005   3.8500000000000000E-002
 ac          71   3.6488739445520792E-005   2.4500000000000001E-002
 ac          72   3.1379646818263229E-005   3.0400000000000000E-002
 ac          73   2.6730299891414683E-005   3.8500000000000000E-002
 ac          74   3.1460412884942395E-005   3.0400000000000000E-002
 ac          75   3.1611175986312599E-005   3.0400000000000000E-002
 ac          76   7.6771252112363213E-005   3.0400000000000000E-002
 ac          77   3.1035677067208509E-005   3.0400000000000000E-002
 ac          78   1.4184074960284983E-004   2.4500000000000001E-002
 abs           1           1   1.0268935868291549        7.9756284259170935E-003   3.8013632216470474E-003   6.3000000000000000E-003   1.0204965510598871        9.3990700017210715E-005   3.0450692504548579E-006
 abs           1           2  0.72435782252306813        6.1532357242044169E-003   2.9012750932859493E-003   5.1000000000000004E-003  0.71913176513092736        1.2359944408563831E-004   2.4579480551057183E-006
 abs           1           3  0.51519886158169403        4.8445476703627604E-003   2.2512379708007997E-003   8.3000000000000001E-003  0.50676358982615965        1.3332131902095331E-004   1.9504365133632422E-006
 abs           1           4  0.36911923906176919        3.9482183942981452E-003   1.8012558683985244E-003   1.1900000000000001E-002  0.35711026605359408        1.0738081510297171E-004   1.5921930721332591E-006
 abs           1           5  0.27323056791460704        3.2537803703820423E-003   1.4512686248858808E-003   2.1499999999999998E-002  0.25165135120424870        7.7933004693889768E-005   1.2837056644074401E-006
 abs           1           6  0.21808328987174042        2.6548542180440306E-003   1.1512476520488090E-003   4.0700000000000000E-002  0.17733570995525508        4.6544990988464270E-005   1.0349254968866184E-006
 abs           1           7  0.17999795990399009        2.2627181823629177E-003   9.5124965931505864E-004   5.5000000000000000E-002  0.12496636268728052        3.0754349502015251E-005   8.4286720756054402E-007
 abs           1           8  0.17298209806718612        1.9602222747796697E-003   8.0122358974669679E-004   8.4900000000000003E-002   8.8062307401195639E-002   1.9102042486779412E-005   6.8862350369763453E-007
 abs           1           9  0.26157458149888041        1.7547511150800613E-003   7.0119663594120851E-004  0.19950000000000001        6.2056459178770673E-002   1.7568037896498455E-005   5.5428221323639069E-007
 abs           1          10  0.32875032189665065        1.5469040559403738E-003   6.0116354119310578E-004  0.28499999999999998        4.3730447673395220E-002   1.9427414074557098E-005   4.4680918086739584E-007
 abs           1          11  0.38203726452460640        1.2383782079307480E-003   4.5112376057606003E-004  0.35120000000000001        3.0816325633509032E-002   2.0576667173411123E-005   3.6222392391031638E-007
 abs           1          12  0.47767566742917744        1.0343614621272049E-003   3.5111410293558754E-004  0.45590000000000003        2.1715897642827310E-002   5.9473240390433380E-005   2.9654595968481946E-007
 abs           1          13  0.65861110799619482        1.0218290267812169E-003   3.5107245284633580E-004  0.64329999999999998        1.5302934426451087E-002   7.9337456623506723E-006   2.3982408149007211E-007
 CDOM           2           1   5.0925262846244282E-003   100.00000000000000        2.0137527074704766     
 CDOM           2           2   5.0925262846244282E-003   100.00000000000000        1.4190675485932573     
 CDOM           2           3   5.0925262846244282E-003   100.00000000000000        1.0000000000000000     
 CDOM           2           4   5.0925262846244282E-003   100.00000000000000       0.70468808971871344     
 CDOM           2           5   5.0925262846244282E-003   100.00000000000000       0.49658530379140947     
 CDOM           2           6   5.0925262846244282E-003   100.00000000000000       0.34993774911115533     
 CDOM           2           7   5.0925262846244282E-003   100.00000000000000       0.24659696394160643     
 CDOM           2           8   5.0925262846244282E-003   100.00000000000000       0.17377394345044514     
 CDOM           2           9   5.0925262846244282E-003   100.00000000000000       0.12245642825298191     
 CDOM           2          10   5.0925262846244282E-003   100.00000000000000        8.6293586499370495E-002
 CDOM           2          11   5.0925262846244282E-003   100.00000000000000        6.0810062625217952E-002
 CDOM           2          12   5.0925262846244282E-003   100.00000000000000        4.2852126867040187E-002
 CDOM           2          13   5.0925262846244282E-003   100.00000000000000        3.0197383422318501E-002
 abs           2           1   1.0320884275046971        8.6425926036312103E-003   3.8035030703339285E-003   6.3000000000000000E-003   1.0255088593527009        2.7554514367813816E-004   4.0230083179926683E-006
 abs           2           2  0.72811940869689196        6.7845692120143799E-003   2.9032922109524422E-003   5.1000000000000004E-003  0.72266387908687157        3.5228227977682246E-004   3.2473302436084605E-006
 abs           2           3  0.51793014914358704        5.4668380686350299E-003   2.2532248288290144E-003   8.3000000000000001E-003  0.50925262846244279        3.7494385228695339E-004   2.5768288572763496E-006
 abs           2           4  0.37107897988475336        4.5748677819560431E-003   1.8032601896635619E-003   1.1900000000000001E-002  0.35886426193543253        3.1261441555975811E-004   2.1035337610419182E-006
 abs           2           5  0.27461599562327443        3.8967211983678171E-003   1.4533197049298968E-003   2.1499999999999998E-002  0.25288737121159593        2.2692843758367773E-004   1.6959740948400466E-006
 abs           2           6  0.21905085409711494        3.3153789804612681E-003   1.1533293956247834E-003   4.0700000000000000E-002  0.17820671853308670        1.4276826708358790E-004   1.3672969446772468E-006
 abs           2           7  0.18067505054240110        2.9541299425055500E-003   9.5340357882543801E-004   5.5000000000000000E-002  0.12558015205812131        9.3784926095060605E-005   1.1135581847515655E-006
 abs           2           8  0.17345349368874230        2.6579618235655178E-003   8.0337887216834112E-004   8.4900000000000003E-002   8.8494837460423081E-002   5.7746449967547312E-005   9.0977835165062960E-007
 abs           2           9  0.26191486315728713        2.4480029508273603E-003   7.0332900492136804E-004  0.19950000000000001        6.2361257959953578E-002   5.2872904642981319E-005   7.3229269056271767E-007
 abs           2          10  0.32900341747426476        2.2289470320501479E-003   6.0325497950566929E-004  0.28499999999999998        4.3945235744255594E-002   5.7591425847468052E-005   5.9030416169238828E-007
 abs           2          11  0.38222759486852870        1.9103395194008611E-003   4.5317403226177217E-004  0.35120000000000001        3.0967684228857997E-002   5.9432085740058319E-005   4.7855393063703635E-007
 abs           2          12  0.47789759373087376        1.6978709246238300E-003   3.5314134017229979E-004  0.45590000000000003        2.1822558242246277E-002   1.7464370546451619E-004   3.9178316299405718E-007
 abs           2          13  0.65870001268141654        1.6609661443042199E-003   3.5302398809231017E-004  0.64329999999999998        1.5378096880503893E-002   2.1598956139972283E-005   3.1684477275693889E-007
 CDOM           3           1   5.1084819934836346E-003   100.00000000000000        2.0137527074704766     
 CDOM           3           2   5.1084819934836346E-003   100.00000000000000        1.4190675485932573     
 CDOM           3           3   5.1084819934836346E-003   100.00000000000000        1.0000000000000000     
 CDOM           3           4   5.1084819934836346E-003   100.00000000000000       0.70468808971871344     
 CDOM           3           5   5.1084819934836346E-003   100.00000000000000       0.49658530379140947     
 CDOM           3           6   5.1084819934836346E-003   100.00000000000000       0.34993774911115533     
 CDOM           3           7   5.1084819934836346E-003   100.00000000000000       0.24659696394160643     
 CDOM           3           8   5.1084819934836346E-003   100.00000000000000       0.17377394345044514     
 CDOM           3           9   5.1084819934836346E-003   100.00000000000000       0.12245642825298191     
 CDOM           3          10   5.1084819934836346E-003   100.00000000000000        8.6293586499370495E-002
 CDOM           3          11   5.1084819934836346E-003   100.00000000000000        6.0810062625217952E-002
 CDOM           3          12   5.1084819934836346E-003   100.00000000000000        4.2852126867040187E-002
 CDOM           3          13   5.1084819934836346E-003   100.00000000000000        3.0197383422318501E-002
 abs           3           1   1.0354213955917260        9.0895364968985575E-003   3.8048710788643730E-003   6.3000000000000000E-003   1.0287219445441846        3.9511302142976432E-004   4.3380261116150020E-006
 abs           3           2  0.73053016499549572        7.2092887004305464E-003   2.9045894411271135E-003   5.1000000000000004E-003  0.72492810195256174        4.9856143362173868E-004   3.5016093123166840E-006
 abs           3           3  0.51967807614725881        5.8855729550051855E-003   2.2545021413624571E-003   8.3000000000000001E-003  0.51084819934836345        5.2709819393501457E-004   2.7786049603808507E-006
 abs           3           4  0.37233747929305777        4.9958310686642670E-003   1.8045446351662646E-003   1.1900000000000001E-002  0.35998864173504275        4.4656930906779855E-004   2.2682489472496743E-006
 abs           3           5  0.27550594853951316        4.3295744011744349E-003   1.4546379696041575E-003   2.1499999999999998E-002  0.25367970826470160        3.2441149909786241E-004   1.8287757137200499E-006
 abs           3           6  0.21967552262251713        3.7650067109769830E-003   1.1546909232613011E-003   4.0700000000000000E-002  0.17876506901745307        2.0897924324835815E-004   1.4743618157122881E-006
 abs           3           7  0.18111192565428774        3.4296593785565982E-003   9.5483590173276974E-004   5.5000000000000000E-002  0.12597361499434295        1.3710990565834124E-004   1.2007542864502963E-006
 abs           3           8  0.17375712046600131        3.1414138357576684E-003   8.0482921624946263E-004   8.4900000000000003E-002   8.8772106105324239E-002   8.4033343007373671E-005   9.8101766968548412E-007
 abs           3           9  0.26213415307874738        2.9300775602716443E-003   7.0477168071550922E-004  0.19950000000000001        6.2556645871667871E-002   7.6717572914709073E-005   7.8963416476129275E-007
 abs           3          10  0.32916658483419414        2.7044832139183688E-003   6.0467618261703300E-004  0.28499999999999998        4.4082923278515665E-002   8.3025028317698079E-005   6.3652736082193981E-007
 abs           3          11  0.38234983058914118        2.3808482018688923E-003   4.5457752180342903E-004  0.35120000000000001        3.1064710994353806E-002   8.4603568151900773E-005   5.1602663549930079E-007
 abs           3          12  0.47804206935795845        2.1618588584608046E-003   3.5452464631876836E-004  0.45590000000000003        2.1890931848275105E-002   2.5071504831686970E-004   4.2246136642525174E-007
 abs           3          13  0.65875651994598239        2.1081405022907109E-003   3.5435610753507536E-004  0.64329999999999998        1.5426278946323528E-002   2.9899344661256512E-005   3.4165499767948217E-007
 CDOM           4           1   5.1079248958106633E-003   100.00000000000000        2.0137527074704766     
 CDOM           4           2   5.1079248958106633E-003   100.00000000000000        1.4190675485932573     
 CDOM           4           3   5.1079248958106633E-003   100.00000000000000        1.0000000000000000     
 CDOM           4           4   5.1079248958106633E-003   100.00000000000000       0.70468808971871344     
 CDOM           4           5   5.1079248958106633E-003   100.00000000000000       0.49658530379140947     
 CDOM           4           6   5.1079248958106633E-003   100.00000000000000       0.34993774911115533     
 CDOM           4           7   5.1079248958106633E-003   100.00000000000000       0.24659696394160643     
 CDOM           4           8   5.1079248958106633E-003   100.00000000000000       0.17377394345044514     
 CDOM           4           9   5.1079248958106633E-003   100.00000000000000       0.12245642825298191     
 CDOM           4          10   5.1079248958106633E-003   100.00000000000000        8.6293586499370495E-002
 CDOM           4          11   5.1079248958106633E-003   100.00000000000000        6.0810062625217952E-002
 CDOM           4          12   5.1079248958106633E-003   100.00000000000000        4.2852126867040187E-002
 CDOM           4          13   5.1079248958106633E-003   100.00000000000000        3.0197383422318501E-002
 abs           4           1   1.0353449720454633        9.2396156982237423E-003   3.8053420498638476E-003   6.3000000000000000E-003   1.0286097588494576        4.3053194783825835E-004   4.6812481676308474E-006
 abs           4           2  0.73049491150184243        7.3512122243727732E-003   2.9050339689550273E-003   5.1000000000000004E-003  0.72484904602965083        5.4208681762491710E-004   3.7786545666824160E-006
 abs           4           3  0.51966747310161610        6.0244801150168550E-003   2.2549357653496084E-003   8.3000000000000001E-003  0.51079248958106638        5.7198507401100501E-004   2.9984465387439418E-006
 abs           4           4  0.37233780360920271        5.1351927288044554E-003   1.8049798551927796E-003   1.1900000000000001E-002  0.35994938372554752        4.8597217219499680E-004   2.4477114601991361E-006
 abs           4           5  0.27550773488050340        4.4718905851875868E-003   1.4550810600900356E-003   2.1499999999999998E-002  0.25365204361298421        3.5371780015433702E-004   1.9734673647855536E-006
 abs           4           6  0.21967639250048521        3.9110485864192407E-003   1.1551427159806206E-003   4.0700000000000000E-002  0.17874557406688163        2.2922742115445363E-004   1.5910124491294383E-006
 abs           4           7  0.18111240870297560        3.5823730566245078E-003   9.5530540723800194E-004   5.5000000000000000E-002  0.12595987713486562        1.5123581085575661E-004   1.2957572542429177E-006
 abs           4           8  0.17375574180715109        3.2951911376715376E-003   8.0529989863836976E-004   8.4900000000000003E-002   8.8762425199372316E-002   9.2257972572270408E-005   1.0586352065361265E-006
 abs           4           9  0.26213448611109130        3.0822086942932456E-003   7.0523596047119034E-004  0.19950000000000001        6.2549823852545858E-002   8.3810148993334122E-005   8.5210955208182422E-007
 abs           4          10  0.32916943138735028        2.8541243193171343E-003   6.0513215130791724E-004  0.28499999999999998        4.4078115882892552E-002   9.0628615429198705E-005   6.8688902851838263E-007
 abs           4          11  0.38235398137926879        2.5284645977124882E-003   4.5502630063121022E-004  0.35120000000000001        3.1061323279915634E-002   9.2101244995976649E-005   5.5685435719530339E-007
 abs           4          12  0.47806215843337024        2.3065096374997535E-003   3.5496393664900697E-004  0.45590000000000003        2.1888544566259160E-002   2.7315798085161591E-004   4.5588625946208905E-007
 abs           4          13  0.65875737979880844        2.2469780860648026E-003   3.5477738673718575E-004  0.64329999999999998        1.5424596657120090E-002   3.2414455149702770E-005   3.6868653869249485E-007
 CDOM           5           1   5.1053266673641478E-003   100.00000000000000        2.0137527074704766     
 CDOM           5           2   5.1053266673641478E-003   100.00000000000000        1.4190675485932573     
 CDOM           5           3   5.1053266673641478E-003   100.00000000000000        1.0000000000000000     
 CDOM           5           4   5.1053266673641478E-003   100.00000000000000       0.70468808971871344     
 CDOM           5           5   5.1053266673641478E-003   100.00000000000000       0.49658530379140947     
 CDOM           5           6   5.1053266673641478E-003   100.00000000000000       0.34993774911115533     
 CDOM           5           7   5.1053266673641478E-003   100.00000000000000       0.24659696394160643     
 CDOM           5           8   5.1053266673641478E-003   100.00000000000000       0.17377394345044514     
 CDOM           5           9   5.1053266673641478E-003   100.00000000000000       0.12245642825298191     
 CDOM           5          10   5.1053266673641478E-003   100.00000000000000        8.6293586499370495E-002
 CDOM           5          11   5.1053266673641478E-003   100.00000000000000        6.0810062625217952E-002
 CDOM           5          12   5.1053266673641478E-003   100.00000000000000        4.2852126867040187E-002
 CDOM           5          13   5.1053266673641478E-003   100.00000000000000        3.0197383422318501E-002
 abs           5           1   1.0348411930006789        9.3087385698438548E-003   3.8055642171726132E-003   6.3000000000000000E-003   1.0280865398925778        4.4958881934663563E-004   5.0642887545792473E-006
 abs           5           2  0.73014957332242880        7.4172916385674779E-003   2.9052458060988664E-003   5.1000000000000004E-003  0.72448033986242244        5.6514561908361605E-004   4.0878409228139674E-006
 abs           5           3  0.51943202057126847        6.0894783150144830E-003   2.2551426881098581E-003   8.3000000000000001E-003  0.51053266673641473        5.9611004205675116E-004   3.2437927970507599E-006
 abs           5           4  0.37217628773302841        5.2008207311184020E-003   1.8051890063123003E-003   1.1900000000000001E-002  0.35976628966148466        5.0735007742367690E-004   2.6479941200414366E-006
 abs           5           5  0.27539409472727994        4.5394794707552394E-003   1.4552952808032597E-003   2.1499999999999998E-002  0.25352301940674093        3.6894037527968358E-004   2.1349452592834084E-006
 abs           5           6  0.21959583986534675        3.9818670023656182E-003   1.1553650602552504E-003   4.0700000000000000E-002  0.17865465224545657        2.3946642371214239E-004   1.7211961780269338E-006
 abs           5           7  0.18105460376515778        3.6578073373929954E-003   9.5554011278053909E-004   5.5000000000000000E-002  0.12589580561021183        1.5739637305867723E-004   1.4017818872969356E-006
 abs           5           8  0.17371462070775073        3.3725549351527138E-003   8.0553926525730221E-004   8.4900000000000003E-002   8.8717274759058690E-002   9.6200691235115486E-005   1.1452574569179215E-006
 abs           5           9  0.26210653670729200        3.1599297622645541E-003   7.0547561106621900E-004  0.19950000000000001        6.2518006875011287E-002   8.7607999327645310E-005   9.2183295303942505E-007
 abs           5          10  0.32915109160369421        2.9309504155771013E-003   6.0536856594436723E-004  0.28499999999999998        4.4055694837773093E-002   9.4653672571175500E-005   7.4309334993662822E-007
 abs           5          11  0.38234218010847765        2.6045651318903997E-003   4.5525973699674549E-004  0.35120000000000001        3.1045523436460904E-002   9.6054253354448232E-005   6.0241866230942683E-007
 abs           5          12  0.47806330795520025        2.3820510452280852E-003   3.5519548218358792E-004  0.45590000000000003        2.1877410604757192E-002   2.8540416153817065E-004   4.9318890485771751E-007
 abs           5          13  0.65875083512448951        2.3201755785818390E-003   3.5500167053374411E-004  0.64329999999999998        1.5416750687058266E-002   3.3685583316966012E-005   3.9885411433124139E-007
 CDOM           6           1   5.0928859655320841E-003   100.00000000000000        2.0137527074704766     
 CDOM           6           2   5.0928859655320841E-003   100.00000000000000        1.4190675485932573     
 CDOM           6           3   5.0928859655320841E-003   100.00000000000000        1.0000000000000000     
 CDOM           6           4   5.0928859655320841E-003   100.00000000000000       0.70468808971871344     
 CDOM           6           5   5.0928859655320841E-003   100.00000000000000       0.49658530379140947     
 CDOM           6           6   5.0928859655320841E-003   100.00000000000000       0.34993774911115533     
 CDOM           6           7   5.0928859655320841E-003   100.00000000000000       0.24659696394160643     
 CDOM           6           8   5.0928859655320841E-003   100.00000000000000       0.17377394345044514     
 CDOM           6           9   5.0928859655320841E-003   100.00000000000000       0.12245642825298191     
 CDOM           6          10   5.0928859655320841E-003   100.00000000000000        8.6293586499370495E-002
 CDOM           6          11   5.0928859655320841E-003   100.00000000000000        6.0810062625217952E-002
 CDOM           6          12   5.0928859655320841E-003   100.00000000000000        4.2852126867040187E-002
 CDOM           6          13   5.0928859655320841E-003   100.00000000000000        3.0197383422318501E-002
 abs           6           1   1.0323333387523816        9.3062707020852165E-003   3.8055778693353265E-003   6.3000000000000000E-003   1.0255812901928627        4.4638661429872620E-004   5.6619452201962932E-006
 abs           6           2  0.72838050211976857        7.4149856173308624E-003   2.9052588888826367E-003   5.1000000000000004E-003  0.72271492023726203        5.6101161953465430E-004   4.5702629718577917E-006
 abs           6           3  0.51818395287664520        6.0862868515907109E-003   2.2551504987344171E-003   8.3000000000000001E-003  0.50928859655320846        5.9172971800161393E-004   3.6266054351584100E-006
 abs           6           4  0.37129629209996273        5.1977696329225855E-003   1.8051976131253553E-003   1.1900000000000001E-002  0.35888960822060501        5.0372338512496249E-004   2.9604942327823756E-006
 abs           6           5  0.27477387797520558        4.5357943433630404E-003   1.4553010406539281E-003   2.1499999999999998E-002  0.25290523243687557        3.6625863985478125E-004   2.3868984751807903E-006
 abs           6           6  0.21915899455226887        3.9776199103890080E-003   1.1553685822715020E-003   4.0700000000000000E-002  0.17821930512580908        2.3776510520845376E-004   1.9243212513085441E-006
 abs           6           7  0.18074679060387011        3.6528332130750700E-003   9.5554104782818604E-004   5.5000000000000000E-002  0.12558902168010289        1.5620171213276142E-004   1.5672116344791700E-006
 abs           6           8  0.17349786329523834        3.3673618725265247E-003   8.0553928158111745E-004   8.4900000000000003E-002   8.8501087777393822E-002   9.5495104088822271E-005   1.2804137556783773E-006
 abs           6           9  0.26195368687021131        3.1546632050199401E-003   7.0547495151342858E-004  0.19950000000000001        6.2365662483879820E-002   8.6993764276674620E-005   1.0306220547873644E-006
 abs           6          10  0.32904315073933194        2.9256736275642295E-003   6.0536742676674390E-004  0.28499999999999998        4.3948339559807294E-002   9.3980390830573476E-005   8.3078869407455416E-007
 abs           6          11  0.38226590042014597        2.5991658610214335E-003   4.5525762581466510E-004  0.35120000000000001        3.0969871450709965E-002   9.5355456998046038E-005   6.7351243795799035E-007
 abs           6          12  0.47800804127107216        2.3767083090940359E-003   3.5519309102875193E-004  0.45590000000000003        2.1824099551434935E-002   2.8339032758633226E-004   5.5139205085571735E-007
 abs           6          13  0.65871305539934832        2.3151336926507441E-003   3.5499982086911546E-004  0.64329999999999998        1.5379183022731712E-002   3.3426452172851098E-005   4.4592444381284530E-007
 CDOM           7           1   5.0801423133293088E-003   100.00000000000000        2.0137527074704766     
 CDOM           7           2   5.0801423133293088E-003   100.00000000000000        1.4190675485932573     
 CDOM           7           3   5.0801423133293088E-003   100.00000000000000        1.0000000000000000     
 CDOM           7           4   5.0801423133293088E-003   100.00000000000000       0.70468808971871344     
 CDOM           7           5   5.0801423133293088E-003   100.00000000000000       0.49658530379140947     
 CDOM           7           6   5.0801423133293088E-003   100.00000000000000       0.34993774911115533     
 CDOM           7           7   5.0801423133293088E-003   100.00000000000000       0.24659696394160643     
 CDOM           7           8   5.0801423133293088E-003   100.00000000000000       0.17377394345044514     
 CDOM           7           9   5.0801423133293088E-003   100.00000000000000       0.12245642825298191     
 CDOM           7          10   5.0801423133293088E-003   100.00000000000000        8.6293586499370495E-002
 CDOM           7          11   5.0801423133293088E-003   100.00000000000000        6.0810062625217952E-002
 CDOM           7          12   5.0801423133293088E-003   100.00000000000000        4.2852126867040187E-002
 CDOM           7          13   5.0801423133293088E-003   100.00000000000000        3.0197383422318501E-002
 abs           7           1   1.0297627585320877        9.2988302286005197E-003   3.8055780986162098E-003   6.3000000000000000E-003   1.0230150337802226        4.4143712281595888E-004   6.2876290492404866E-006
 abs           7           2  0.72656637533054480        7.4078824865701394E-003   2.9052590052459667E-003   5.1000000000000004E-003  0.72090650990811023        5.5479011401904756E-004   5.0753084155633989E-006
 abs           7           3  0.51690342563670499        6.0782642916004780E-003   2.2551451214445919E-003   8.3000000000000001E-003  0.50801423133293089        5.8516693353339048E-004   4.0273702406899848E-006
 abs           7           4  0.37039300372057365        5.1898445889261360E-003   1.8051929296142260E-003   1.1900000000000001E-002  0.35799157822792366        4.9813784347389170E-004   3.2876491760734574E-006
 abs           7           5  0.27413724953477803        4.5269979180420075E-003   1.4552927763593270E-003   2.1499999999999998E-002  0.25227240139682283        3.6219747080696728E-004   2.6506671482092249E-006
 abs           7           6  0.21871062313775363        3.9678659202209499E-003   1.1553568965033251E-003   4.0700000000000000E-002  0.17777335662907959        2.3512953670961942E-004   2.1369719644477471E-006
 abs           7           7  0.18043097778188349        3.6418415677779608E-003   9.5552526422068281E-004   5.5000000000000000E-002  0.12527476708582966        1.5447029677126870E-004   1.7403992825838863E-006
 abs           7           8  0.17327549471583953        3.3558949749795943E-003   8.0552181733706783E-004   8.4900000000000003E-002   8.8279636307670092E-002   9.4436499900800010E-005   1.4219082686517703E-006
 abs           7           9  0.26179678211923985        3.1430224101609322E-003   7.0545649792001124E-004  0.19950000000000001        6.2209608270714804E-002   8.6029335655622829E-005   1.1445128694205722E-006
 abs           7          10  0.32893223103470443        2.9140619295384565E-003   6.0534858415002221E-004  0.28499999999999998        4.3838370014439486E-002   9.2938423714939542E-005   9.2259655003561397E-007
 abs           7          11  0.38218742322811428        2.5874434296250153E-003   4.5523781173844479E-004  0.35120000000000001        3.0892377221857486E-002   9.4298066069218372E-005   7.4794018755671140E-007
 abs           7          12  0.47795035078177667        2.3650545737494938E-003   3.5517301719437919E-004  0.45590000000000003        2.1769490291340655E-002   2.8024816577694434E-004   6.1232465904368131E-007
 abs           7          13  0.65867425138183866        2.3039599403923338E-003   3.5498079391519906E-004  0.64329999999999998        1.5340700527554924E-002   3.3055652126680131E-005   4.9520215714606440E-007
 CDOM           8           1   4.8775547213227846E-003   100.00000000000000        2.0137527074704766     
 CDOM           8           2   4.8775547213227846E-003   100.00000000000000        1.4190675485932573     
 CDOM           8           3   4.8775547213227846E-003   100.00000000000000        1.0000000000000000     
 CDOM           8           4   4.8775547213227846E-003   100.00000000000000       0.70468808971871344     
 CDOM           8           5   4.8775547213227846E-003   100.00000000000000       0.49658530379140947     
 CDOM           8           6   4.8775547213227846E-003   100.00000000000000       0.34993774911115533     
 CDOM           8           7   4.8775547213227846E-003   100.00000000000000       0.24659696394160643     
 CDOM           8           8   4.8775547213227846E-003   100.00000000000000       0.17377394345044514     
 CDOM           8           9   4.8775547213227846E-003   100.00000000000000       0.12245642825298191     
 CDOM           8          10   4.8775547213227846E-003   100.00000000000000        8.6293586499370495E-002
 CDOM           8          11   4.8775547213227846E-003   100.00000000000000        6.0810062625217952E-002
 CDOM           8          12   4.8775547213227846E-003   100.00000000000000        4.2852126867040187E-002
 CDOM           8          13   4.8775547213227846E-003   100.00000000000000        3.0197383422318501E-002
 abs           8           1  0.98893069592278460        9.1644845188978263E-003   3.8052225507846037E-003   6.3000000000000000E-003  0.98221890258991629        4.0489949565614299E-004   6.8938372121817401E-006
 abs           8           2  0.69777558891877522        7.2795604215090907E-003   2.9049180499931401E-003   5.1000000000000004E-003  0.69215796215169922        5.1206213377075573E-004   5.5646333052578089E-006
 abs           8           3  0.49660170648162288        5.9512043999916152E-003   2.2548063479384188E-003   8.3000000000000001E-003  0.48775547213227843        5.4181868890790317E-004   4.4156604365608527E-006
 abs           8           4  0.35607558852871524        5.0628046517267418E-003   1.8048559121295077E-003   1.1900000000000001E-002  0.34371547190674445        4.5651200120623824E-004   3.6046207645394720E-006
 abs           8           5  0.26404721566688222        4.3956731035042426E-003   1.4549429236654023E-003   2.1499999999999998E-002  0.24221219930472984        3.3211013666097902E-004   2.9062254914099492E-006
 abs           8           6  0.21159946722422751        3.8288510190330857E-003   1.1549809243885428E-003   4.0700000000000000E-002  0.17068405203461837        2.1307218611221502E-004   2.3430034969506567E-006
 abs           8           7  0.17542058579981815        3.4922016958060216E-003   9.5511496989504727E-004   5.5000000000000000E-002  0.12027901857372468        1.3965902997623892E-004   1.9081961172280831E-006
 abs           8           8  0.16974649527068961        3.2021706613347112E-003   8.0509711755206927E-004   8.4900000000000003E-002   8.4759191831959721E-002   8.5744440249213574E-005   1.5589984806633215E-006
 abs           8           9  0.25930845028856647        2.9891555278705032E-003   7.0503040506290666E-004  0.19950000000000001        5.9728792978165669E-002   7.8402451797144170E-005   1.2548586036553036E-006
 abs           8          10  0.32717623464090012        2.7616568325702154E-003   6.0492525363123198E-004  0.28499999999999998        4.2090169024988064E-002   8.5054069209979303E-005   1.0115467020488892E-006
 abs           8          11  0.38094777557072412        2.4355085253076839E-003   4.5481336187979537E-004  0.35120000000000001        2.9660440806156600E-002   8.6514713343608635E-005   8.2005122393272979E-007
 abs           8          12  0.47705975341924128        2.2159390478659331E-003   3.5475822263801072E-004  0.45590000000000003        2.0901359371905480E-002   2.5772268671842317E-004   6.7136061739547652E-007
 abs           8          13  0.65806037263715178        2.1604637771496563E-003   3.5458226342430953E-004  0.64329999999999998        1.4728939008312398E-002   3.0890682836722418E-005   5.4294600265875788E-007
 CDOM           9           1   4.6745765568321669E-003   100.00000000000000        2.0137527074704766     
 CDOM           9           2   4.6745765568321669E-003   100.00000000000000        1.4190675485932573     
 CDOM           9           3   4.6745765568321669E-003   100.00000000000000        1.0000000000000000     
 CDOM           9           4   4.6745765568321669E-003   100.00000000000000       0.70468808971871344     
 CDOM           9           5   4.6745765568321669E-003   100.00000000000000       0.49658530379140947     
 CDOM           9           6   4.6745765568321669E-003   100.00000000000000       0.34993774911115533     
 CDOM           9           7   4.6745765568321669E-003   100.00000000000000       0.24659696394160643     
 CDOM           9           8   4.6745765568321669E-003   100.00000000000000       0.17377394345044514     
 CDOM           9           9   4.6745765568321669E-003   100.00000000000000       0.12245642825298191     
 CDOM           9          10   4.6745765568321669E-003   100.00000000000000        8.6293586499370495E-002
 CDOM           9          11   4.6745765568321669E-003   100.00000000000000        6.0810062625217952E-002
 CDOM           9          12   4.6745765568321669E-003   100.00000000000000        4.2852126867040187E-002
 CDOM           9          13   4.6745765568321669E-003   100.00000000000000        3.0197383422318501E-002
 abs           9           1  0.94802221613920579        9.0444184126583088E-003   3.8048543683268971E-003   6.3000000000000000E-003  0.94134411975987942        3.7059890587228542E-004   7.4974734540882687E-006
 abs           9           2  0.66892781233907994        7.1666400576764922E-003   2.9045738046375425E-003   5.1000000000000004E-003  0.66335398952153324        4.6777093537949961E-004   6.0518821671888966E-006
 abs           9           3  0.47625725692729876        5.8390177939557338E-003   2.2544613213580354E-003   8.3000000000000001E-003  0.46745765568321668        4.9479894082393532E-004   4.8023032581741859E-006
 abs           9           4  0.34173353366369247        4.9501394554954115E-003   1.8045088229915913E-003   1.1900000000000001E-002  0.32941184240779403        4.1777100834071857E-004   3.9202475576932132E-006
 abs           9           5  0.25393929699994366        4.2799116677664272E-003   1.4545855231150023E-003   2.1499999999999998E-002  0.23213260195707025        3.0353434328001644E-004   3.1606995933901529E-006
 abs           9           6  0.20447868986369977        3.7110731202031262E-003   1.1546218013455522E-003   4.0700000000000000E-002  0.16358107983456230        1.9506186822497516E-004   2.5481609125005881E-006
 abs           9           7  0.17040292513275049        3.3699296198484233E-003   9.5474642142672178E-004   5.5000000000000000E-002  0.11527363866274205        1.2721118895754914E-004   2.0752810508538447E-006
 abs           9           8  0.16621196616321168        3.0799945356240139E-003   8.0473257935742906E-004   8.4900000000000003E-002   8.1231960224172950E-002   7.8310431970042866E-005   1.6955070687023145E-006
 abs           9           9  0.25681640334019706        2.8686045363143999E-003   7.0467228475568761E-004  0.19950000000000001        5.7243194874478945E-002   7.1843729537090091E-005   1.3647361810219495E-006
 abs           9          10  0.32541755206540657        2.6433760746589060E-003   6.0457512999578171E-004  0.28499999999999998        4.0338597645492608E-002   7.7854300443185945E-005   1.1001194708776578E-006
 abs           9          11  0.37970609192826210        2.3192727989000440E-003   4.5447122612853605E-004  0.35120000000000001        2.8426129316733977E-002   7.9070755208731394E-005   8.9185631937520577E-007
 abs           9          12  0.47616831110234242        2.1015695189559418E-003   3.5442040375034971E-004  0.45590000000000003        2.0031554766306390E-002   2.3602618992836648E-004   7.3014610762036076E-007
 abs           9          13  0.65744469927551741        2.0508384513526676E-003   3.5425889533034581E-004  0.64329999999999998        1.4115998062364236E-002   2.8110725864851149E-005   5.9048728837754011E-007
 CDOM          10           1   4.3904794790722065E-003   100.00000000000000        2.0137527074704766     
 CDOM          10           2   4.3904794790722065E-003   100.00000000000000        1.4190675485932573     
 CDOM          10           3   4.3904794790722065E-003   100.00000000000000        1.0000000000000000     
 CDOM          10           4   4.3904794790722065E-003   100.00000000000000       0.70468808971871344     
 CDOM          10           5   4.3904794790722065E-003   100.00000000000000       0.49658530379140947     
 CDOM          10           6   4.3904794790722065E-003   100.00000000000000       0.34993774911115533     
 CDOM          10           7   4.3904794790722065E-003   100.00000000000000       0.24659696394160643     
 CDOM          10           8   4.3904794790722065E-003   100.00000000000000       0.17377394345044514     
 CDOM          10           9   4.3904794790722065E-003   100.00000000000000       0.12245642825298191     
 CDOM          10          10   4.3904794790722065E-003   100.00000000000000        8.6293586499370495E-002
 CDOM          10          11   4.3904794790722065E-003   100.00000000000000        6.0810062625217952E-002
 CDOM          10          12   4.3904794790722065E-003   100.00000000000000        4.2852126867040187E-002
 CDOM          10          13   4.3904794790722065E-003   100.00000000000000        3.0197383422318501E-002
 abs          10           1  0.89075086150263583        8.8226147571919752E-003   3.8041530109747122E-003   6.3000000000000000E-003  0.88413399380752233        3.0907008624419364E-004   7.7976088694092672E-006
 abs          10           2  0.62853413419110604        6.9574140900439344E-003   2.9039155265651122E-003   5.1000000000000004E-003  0.62303869515159971        3.8914489117054368E-004   6.2941483357649954E-006
 abs          10           3  0.44776440847009163        5.6320937209031457E-003   2.2538080743696120E-003   8.3000000000000001E-003  0.43904794790722063        4.1146601601351363E-004   4.9945468575301184E-006
 abs          10           4  0.32164427534398443        4.7419963438512947E-003   1.8038504594310456E-003   1.1900000000000001E-002  0.30939185970566052        3.4833845721572487E-004   4.0771811081878518E-006
 abs          10           5  0.23978071926028874        4.0663066138886634E-003   1.4539102931757685E-003   2.1499999999999998E-002  0.21802475859050208        2.5267344251819811E-004   3.2872272684764555E-006
 abs          10           6  0.19450481957649476        3.4929252442093130E-003   1.1539410022616027E-003   4.0700000000000000E-002  0.15363945064252457        1.6271876624988763E-004   2.6501677203221036E-006
 abs          10           7  0.16337548848921021        3.1427615196874511E-003   9.5404604920645592E-004   5.5000000000000000E-002  0.10826789097871319        1.0543915274787071E-004   2.1583577491469440E-006
 abs          10           8  0.16126198564826780        2.8520165551966172E-003   8.0403642728703892E-004   8.4900000000000003E-002   7.6295093271663339E-002   6.5128995775141940E-005   1.7633808292912459E-006
 abs          10           9  0.25332566651093047        2.6429371453771289E-003   7.0398623539907489E-004  0.19950000000000001        5.3764243532519497E-002   6.0003609737702665E-005   1.4193686732878958E-006
 abs          10          10  0.32295310054029086        2.4217114318186837E-003   6.0390358168641066E-004  0.28499999999999998        3.7887022070102853E-002   6.4934311239565098E-005   1.1441589484852160E-006
 abs          10          11  0.37796528228756882        2.1012596358682893E-003   4.5381443045376039E-004  0.35120000000000001        2.6698533207711515E-002   6.5821521155151537E-005   9.2755870211273620E-007
 abs          10          12  0.47491188149148766        1.8866399539566288E-003   3.5377126150969954E-004  0.45590000000000003        1.8814138364433870E-002   1.9698375207240099E-004   7.5937498139998735E-007
 abs          10          13  0.65658198464246431        1.8442934677924600E-003   3.5363562504491636E-004  0.64329999999999998        1.3258099223736461E-002   2.3271293323482109E-005   6.1412540442079518E-007
 CDOM          11           1   4.0792388016810451E-003   100.00000000000000        2.0137527074704766     
 CDOM          11           2   4.0792388016810451E-003   100.00000000000000        1.4190675485932573     
 CDOM          11           3   4.0792388016810451E-003   100.00000000000000        1.0000000000000000     
 CDOM          11           4   4.0792388016810451E-003   100.00000000000000       0.70468808971871344     
 CDOM          11           5   4.0792388016810451E-003   100.00000000000000       0.49658530379140947     
 CDOM          11           6   4.0792388016810451E-003   100.00000000000000       0.34993774911115533     
 CDOM          11           7   4.0792388016810451E-003   100.00000000000000       0.24659696394160643     
 CDOM          11           8   4.0792388016810451E-003   100.00000000000000       0.17377394345044514     
 CDOM          11           9   4.0792388016810451E-003   100.00000000000000       0.12245642825298191     
 CDOM          11          10   4.0792388016810451E-003   100.00000000000000        8.6293586499370495E-002
 CDOM          11          11   4.0792388016810451E-003   100.00000000000000        6.0810062625217952E-002
 CDOM          11          12   4.0792388016810451E-003   100.00000000000000        4.2852126867040187E-002
 CDOM          11          13   4.0792388016810451E-003   100.00000000000000        3.0197383422318501E-002
 abs          11           1  0.82799342450074831        8.5368112634670798E-003   3.8032335264137291E-003   6.3000000000000000E-003  0.82145781813038266        2.2764937351630297E-004   7.9569968493635966E-006
 abs          11           2  0.58426277286493256        6.6875563073923250E-003   2.9030521642095181E-003   5.1000000000000004E-003  0.57887154064280166        2.8480941748459064E-004   6.4228046463817254E-006
 abs          11           3  0.41652938423449359        5.3649521903905871E-003   2.2529510593043743E-003   8.3000000000000001E-003  0.40792388016810449        3.0040742788429536E-004   5.0966385048211268E-006
 abs          11           4  0.29961992999131210        4.4728278845292194E-003   1.8029848520283919E-003   1.1900000000000001E-002  0.28745909986630691        2.5666960377676470E-004   4.1605212284254102E-006
 abs          11           5  0.22425819417683837        3.7897908925159838E-003   1.4530222064879047E-003   2.1499999999999998E-002  0.20256900395704869        1.8583579954928301E-004   3.3544202404179868E-006
 abs          11           6  0.18357150244098605        3.2102606257274620E-003   1.1530465930282812E-003   4.0700000000000000E-002  0.14274796443471513        1.2083366747246032E-004   2.7043387984765162E-006
 abs          11           7  0.15567296069949485        2.8481917905844490E-003   9.5312714678206872E-004   5.5000000000000000E-002  0.10059279036873425        7.7967854835304113E-005   2.2024759252977015E-006
 abs          11           8  0.15583651268945575        2.5559334595313993E-003   8.0312281356910854E-004   8.4900000000000003E-002   7.0886541284418347E-002   4.8171979606112682E-005   1.7994254312939898E-006
 abs          11           9  0.24949879099489364        2.3492448337644745E-003   7.0308447094682817E-004  0.19950000000000001        4.9952901364483479E-002   4.4441248957489603E-005   1.4483814526455956E-006
 abs          11          10  0.32025028468109051        2.1331543867078072E-003   6.0302111018771369E-004  0.28499999999999998        3.5201214638445166E-002   4.7902496375663686E-005   1.1675462697268808E-006
 abs          11          11  0.37605521521885704        1.8175567032078937E-003   4.5295248701299407E-004  0.35120000000000001        2.4805876699344337E-002   4.8392000933197984E-005   9.4651857946678071E-007
 abs          11          12  0.47352612218435725        1.6061155827291730E-003   3.5291634096037787E-004  0.45590000000000003        1.7480405865058911E-002   1.4494142221952721E-004   7.7489707879423249E-007
 abs          11          13  0.65563567574736115        1.5742255196697791E-003   3.5281314537616038E-004  0.64329999999999998        1.2318233816556157E-002   1.6815252294963845E-005   6.2667851003157733E-007
 CDOM          12           1   3.7677809893948725E-003   100.00000000000000        2.0137527074704766     
 CDOM          12           2   3.7677809893948725E-003   100.00000000000000        1.4190675485932573     
 CDOM          12           3   3.7677809893948725E-003   100.00000000000000        1.0000000000000000     
 CDOM          12           4   3.7677809893948725E-003   100.00000000000000       0.70468808971871344     
 CDOM          12           5   3.7677809893948725E-003   100.00000000000000       0.49658530379140947     
 CDOM          12           6   3.7677809893948725E-003   100.00000000000000       0.34993774911115533     
 CDOM          12           7   3.7677809893948725E-003   100.00000000000000       0.24659696394160643     
 CDOM          12           8   3.7677809893948725E-003   100.00000000000000       0.17377394345044514     
 CDOM          12           9   3.7677809893948725E-003   100.00000000000000       0.12245642825298191     
 CDOM          12          10   3.7677809893948725E-003   100.00000000000000        8.6293586499370495E-002
 CDOM          12          11   3.7677809893948725E-003   100.00000000000000        6.0810062625217952E-002
 CDOM          12          12   3.7677809893948725E-003   100.00000000000000        4.2852126867040187E-002
 CDOM          12          13   3.7677809893948725E-003   100.00000000000000        3.0197383422318501E-002
 abs          12           1  0.76519745853874721        8.2627397372236032E-003   3.8023821396700988E-003   6.3000000000000000E-003  0.75873791685497161        1.5144041232140450E-004   8.1012714542450219E-006
 abs          12           2  0.53996959701621272        6.4278710224991596E-003   2.9022485282888411E-003   5.1000000000000004E-003  0.53467357322568598        1.8948452892806432E-004   6.5392615986879755E-006
 abs          12           3  0.38528342760627587        5.1081914307339570E-003   2.2521552976914523E-003   8.3000000000000001E-003  0.37677809893948727        2.0013961709896582E-004   5.1890496896471390E-006
 abs          12           4  0.27758630761040670        4.2144966919756095E-003   1.8021832764889860E-003   1.1900000000000001E-002  0.26551103878951571        1.7103286196061660E-004   4.2359589303241947E-006
 abs          12           5  0.20872934666844403        3.5241135739472419E-003   1.4521987454064044E-003   2.1499999999999998E-002  0.18710246672381503        1.2346470274144373E-004   3.4152418875738821E-006
 abs          12           6  0.17263164346193299        2.9361199208391923E-003   1.1522051194988831E-003   4.0700000000000000E-002  0.13184887985726435        8.0010231363920591E-005   2.7533733047107266E-006
 abs          12           7  0.14796577019855134        2.5599906318964439E-003   9.5225047932651660E-004   5.5000000000000000E-002   9.2912335278167765E-002   5.1192509624808432E-005   2.2424107587403709E-006
 abs          12           8  0.15040786116662605        2.2643495641925205E-003   8.0224204457817752E-004   8.4900000000000003E-002   6.5474216058476684E-002   3.1813055912005774E-005   1.8320522373652144E-006
 abs          12           9  0.24566991240819414        2.0591373912916895E-003   7.0221118081398792E-004  0.19950000000000001        4.6138900240078239E-002   2.9537524913256387E-005   1.4746432026191102E-006
 abs          12          10  0.31754654115818948        1.8474510833723654E-003   6.0216317717984563E-004  0.28499999999999998        3.2513533471903021E-002   3.1818970311707751E-005   1.1887159748222272E-006
 abs          12          11  0.37414506935037839        1.5355900096786445E-003   4.5210900578923884E-004  0.35120000000000001        2.2911899792320785E-002   3.2205877400925569E-005   9.6368065664875429E-007
 abs          12          12  0.47214292444789246        1.3277434059555085E-003   3.5208265189906130E-004  0.45590000000000003        1.6145742896477130E-002   9.6392604064512774E-005   7.8894735077288125E-007
 abs          12          13  0.65468952221524135        1.3061055523761137E-003   3.5201081303265773E-004  0.64329999999999998        1.1377712718807952E-002   1.1171455119542834E-005   6.3804131388008186E-007
 CDOM          13           1   3.3325106023907335E-003   100.00000000000000        2.0137527074704766     
 CDOM          13           2   3.3325106023907335E-003   100.00000000000000        1.4190675485932573     
 CDOM          13           3   3.3325106023907335E-003   100.00000000000000        1.0000000000000000     
 CDOM          13           4   3.3325106023907335E-003   100.00000000000000       0.70468808971871344     
 CDOM          13           5   3.3325106023907335E-003   100.00000000000000       0.49658530379140947     
 CDOM          13           6   3.3325106023907335E-003   100.00000000000000       0.34993774911115533     
 CDOM          13           7   3.3325106023907335E-003   100.00000000000000       0.24659696394160643     
 CDOM          13           8   3.3325106023907335E-003   100.00000000000000       0.17377394345044514     
 CDOM          13           9   3.3325106023907335E-003   100.00000000000000       0.12245642825298191     
 CDOM          13          10   3.3325106023907335E-003   100.00000000000000        8.6293586499370495E-002
 CDOM          13          11   3.3325106023907335E-003   100.00000000000000        6.0810062625217952E-002
 CDOM          13          12   3.3325106023907335E-003   100.00000000000000        4.2852126867040187E-002
 CDOM          13          13   3.3325106023907335E-003   100.00000000000000        3.0197383422318501E-002
 abs          13           1  0.67753282845051088        8.2233273117868402E-003   3.8022591682064771E-003   6.3000000000000000E-003  0.67108522482384092        1.3945373374557308E-004   8.1498929244068891E-006
 abs          13           2  0.47818681015250197        6.3904052932460750E-003   2.9021322247095430E-003   5.1000000000000004E-003  0.47290576511956578        1.7446652459524880E-004   6.5785083409428145E-006
 abs          13           3  0.34174053145686634        5.0709025417128078E-003   2.2520391684686752E-003   8.3000000000000001E-003  0.33325106023907336        1.8425102493945902E-004   5.2201928535416672E-006
 abs          13           4  0.24690009199228299        4.1768620999426036E-003   1.8020658476270266E-003   1.1900000000000001E-002  0.23483805303660851        1.5777757375324110E-004   4.2613819212585046E-006
 abs          13           5  0.18710486634173817        3.4851967225966473E-003   1.4520774052738247E-003   2.1499999999999998E-002  0.16548757898762953        1.1385161493464198E-004   3.4357391740146689E-006
 abs          13           6  0.15739375006139400        2.8956927199133820E-003   1.1520806519493983E-003   4.0700000000000000E-002  0.11661712590896736        7.3854254177829867E-005   2.7698982488180275E-006
 abs          13           7  0.13722834843190265        2.5172288952907151E-003   9.5212034250666418E-004   5.5000000000000000E-002   8.2178699685276885E-002   4.7392877571213041E-005   2.2558690545662208E-006
 abs          13           8  0.14284158217085324        2.2208248653659323E-003   8.0211074923862197E-004   8.4900000000000003E-002   5.7910350896785624E-002   2.9388226386682245E-005   1.8430476809443030E-006
 abs          13           9  0.24033743994744169        2.0155685725369342E-003   7.0208025844595604E-004  0.19950000000000001        4.0808734548396237E-002   2.7221905464112786E-005   1.4834935813381167E-006
 abs          13          10  0.31378792475513345        1.8044783752312007E-003   6.0203444530655095E-004  0.28499999999999998        2.8757429192747406E-002   2.9299712084347310E-005   1.1958503016531677E-006
 abs          13          11  0.37149571185481012        1.4931437161218968E-003   4.5198248953810111E-004  0.35120000000000001        2.0265017843058331E-002   2.9724547364673337E-005   9.6946438708630957E-007
 abs          13          12  0.47026987041415508        1.2855562577142653E-003   3.5195658254028370E-004  0.45590000000000003        1.4280516711940423E-002   8.8560019831835521E-005   7.9368238283439634E-007
 abs          13          13  0.65337422416312363        1.2653157455723930E-003   3.5188899046267066E-004  0.64329999999999998        1.0063310041933457E-002   1.0272250538319502E-005   6.4187065188956215E-007
 CDOM          14           1   2.8559477332204455E-003   100.00000000000000        2.0137527074704766     
 CDOM          14           2   2.8559477332204455E-003   100.00000000000000        1.4190675485932573     
 CDOM          14           3   2.8559477332204455E-003   100.00000000000000        1.0000000000000000     
 CDOM          14           4   2.8559477332204455E-003   100.00000000000000       0.70468808971871344     
 CDOM          14           5   2.8559477332204455E-003   100.00000000000000       0.49658530379140947     
 CDOM          14           6   2.8559477332204455E-003   100.00000000000000       0.34993774911115533     
 CDOM          14           7   2.8559477332204455E-003   100.00000000000000       0.24659696394160643     
 CDOM          14           8   2.8559477332204455E-003   100.00000000000000       0.17377394345044514     
 CDOM          14           9   2.8559477332204455E-003   100.00000000000000       0.12245642825298191     
 CDOM          14          10   2.8559477332204455E-003   100.00000000000000        8.6293586499370495E-002
 CDOM          14          11   2.8559477332204455E-003   100.00000000000000        6.0810062625217952E-002
 CDOM          14          12   2.8559477332204455E-003   100.00000000000000        4.2852126867040187E-002
 CDOM          14          13   2.8559477332204455E-003   100.00000000000000        3.0197383422318501E-002
 abs          14           1  0.58156633439306016        8.2470742578318514E-003   3.8023384847749296E-003   6.3000000000000000E-003  0.57511724801668418        1.4093268925733483E-004   8.1536871186773515E-006
 abs          14           2  0.41056182497285543        6.4118720864978209E-003   2.9022039901108374E-003   5.1000000000000004E-003  0.40527827486916074        1.7696853271981298E-004   6.5815709748800839E-006
 abs          14           3  0.29408656194550625        5.0911641066270887E-003   2.2521071093011863E-003   8.3000000000000001E-003  0.28559477332204453        1.8656600034002715E-004   5.2226231217671926E-006
 abs          14           4  0.21331893637805147        4.1967554364737121E-003   1.8021327062674702E-003   1.1900000000000001E-002  0.20125523524596053        1.5943776627725493E-004   4.2633658136875046E-006
 abs          14           5  0.16344144940720920        3.5045318196168882E-003   1.4521425656354892E-003   2.1499999999999998E-002  0.14182216727136621        1.1584479715569867E-004   3.4373386872855504E-006
 abs          14           6  0.14071855465054633        2.9132305597056288E-003   1.1521399074632785E-003   4.0700000000000000E-002   9.9940392134226896E-002   7.5391328540534076E-005   2.7711877788968776E-006
 abs          14           7  0.12547876678949890        2.5333444545887402E-003   9.5217495278680797E-004   5.5000000000000000E-002   7.0426804018807479E-002   4.9705851413779492E-005   2.2569192776208225E-006
 abs          14           8  0.13456107331927580        2.2349982511493203E-003   8.0215901076970955E-004   8.4900000000000003E-002   4.9628929989007663E-002   3.0299424553720487E-005   1.8439057144198457E-006
 abs          14           9  0.23450191449558891        2.0279370370088349E-003   7.0212268427550096E-004  0.19950000000000001        3.4972915868737575E-002   2.7514442627446337E-005   1.4841842238899622E-006
 abs          14          10  0.30967586984671069        1.8160588521972079E-003   6.0207424048650752E-004  0.28499999999999998        2.4644997275433959E-002   2.9676164245310273E-005   1.1964070314660560E-006
 abs          14          11  0.36859820142647881        1.5039856370062863E-003   4.5201976321840103E-004  0.35120000000000001        1.7367036051148452E-002   3.0195459607694884E-005   9.6991572261390712E-007
 abs          14          12  0.46822831108496371        1.2949587454486003E-003   3.5198933218744431E-004  0.45590000000000003        1.2238343458959836E-002   8.9173574121034766E-005   7.9405188279929755E-007
 abs          14          13  0.65193536709232247        1.2734767004625143E-003   3.5191769371893319E-004  0.64329999999999998        8.6242148734159176E-003   1.0510049430868701E-005   6.4216947568668028E-007
 CDOM          15           1   2.3789603593799532E-003   100.00000000000000        2.0137527074704766     
 CDOM          15           2   2.3789603593799532E-003   100.00000000000000        1.4190675485932573     
 CDOM          15           3   2.3789603593799532E-003   100.00000000000000        1.0000000000000000     
 CDOM          15           4   2.3789603593799532E-003   100.00000000000000       0.70468808971871344     
 CDOM          15           5   2.3789603593799532E-003   100.00000000000000       0.49658530379140947     
 CDOM          15           6   2.3789603593799532E-003   100.00000000000000       0.34993774911115533     
 CDOM          15           7   2.3789603593799532E-003   100.00000000000000       0.24659696394160643     
 CDOM          15           8   2.3789603593799532E-003   100.00000000000000       0.17377394345044514     
 CDOM          15           9   2.3789603593799532E-003   100.00000000000000       0.12245642825298191     
 CDOM          15          10   2.3789603593799532E-003   100.00000000000000        8.6293586499370495E-002
 CDOM          15          11   2.3789603593799532E-003   100.00000000000000        6.0810062625217952E-002
 CDOM          15          12   2.3789603593799532E-003   100.00000000000000        4.2852126867040187E-002
 CDOM          15          13   2.3789603593799532E-003   100.00000000000000        3.0197383422318501E-002
 abs          15           1  0.48547160169332054        8.0970622568697689E-003   3.8018795203887462E-003   6.3000000000000000E-003  0.47906378646663189        9.9662680891421081E-005   8.1525457972271305E-006
 abs          15           2  0.34282331123615661        6.2693422300382617E-003   2.9017690731836976E-003   5.1000000000000004E-003  0.33759054453858450        1.2618604785997786E-004   6.5806497121408523E-006
 abs          15           3  0.24633479479491149        4.9503513191762240E-003   2.2516774200635309E-003   8.3000000000000001E-003  0.23789603593799533        1.3353696483690052E-004   5.2218920792696653E-006
 abs          15           4  0.17965998539682437        4.0551222841794816E-003   1.8017002923622649E-003   1.1900000000000001E-002  0.16764250311680032        1.1321951097975683E-004   4.2627690443017674E-006
 abs          15           5  0.13972136152073758        3.3587327692073967E-003   1.4516980372010387E-003   2.1499999999999998E-002  0.11813567527704147        8.2249386154146749E-005   3.4368575419683002E-006
 abs          15           6  0.12400442439607073        2.7618068143893297E-003   1.1516813407221847E-003   4.0700000000000000E-002   8.3248803338608596E-002   5.2850257583342287E-005   2.7707998787961487E-006
 abs          15           7  0.11370176613299619        2.3732123031931615E-003   9.5169301901544643E-004   5.5000000000000000E-002   5.8664440196052943E-002   3.5069333580430001E-005   2.2566033628272482E-006
 abs          15           8  0.12626332827633177        2.0722087200907577E-003   8.0167142440006934E-004   8.4900000000000003E-002   4.1340132296174267E-002   2.1352332545863135E-005   1.8436476116605144E-006
 abs          15           9  0.22865271921921720        1.8655371675110161E-003   7.0163754473066321E-004  0.19950000000000001        2.9131898856509929E-002   1.9336386233733072E-005   1.4839764735475526E-006
 abs          15          10  0.30555102082122870        1.6558734497485136E-003   6.0159648812602238E-004  0.28499999999999998        2.0528902155072751E-002   2.0922426592889794E-005   1.1962395630571835E-006
 abs          15          11  0.36568895256922113        1.3455409665766116E-003   4.5154833166887717E-004  0.35120000000000001        1.4466472843680597E-002   2.1509945582958776E-005   9.6977995757865209E-007
 abs          15          12  0.46615798536432618        1.1385237693633532E-003   3.5152384756045673E-004  0.45590000000000003        1.0194351113180927E-002   6.2840310410730555E-005   7.9394073450120410E-007
 abs          15          13  0.65049207437726642        1.1226562248659471E-003   3.5146927006084519E-004  0.64329999999999998        7.1838378118693064E-003   7.5944858099001389E-006   6.4207958729795371E-007
 CDOM          16           1   1.6641377664878949E-003   100.00000000000000        2.0137527074704766     
 CDOM          16           2   1.6641377664878949E-003   100.00000000000000        1.4190675485932573     
 CDOM          16           3   1.6641377664878949E-003   100.00000000000000        1.0000000000000000     
 CDOM          16           4   1.6641377664878949E-003   100.00000000000000       0.70468808971871344     
 CDOM          16           5   1.6641377664878949E-003   100.00000000000000       0.49658530379140947     
 CDOM          16           6   1.6641377664878949E-003   100.00000000000000       0.34993774911115533     
 CDOM          16           7   1.6641377664878949E-003   100.00000000000000       0.24659696394160643     
 CDOM          16           8   1.6641377664878949E-003   100.00000000000000       0.17377394345044514     
 CDOM          16           9   1.6641377664878949E-003   100.00000000000000       0.12245642825298191     
 CDOM          16          10   1.6641377664878949E-003   100.00000000000000        8.6293586499370495E-002
 CDOM          16          11   1.6641377664878949E-003   100.00000000000000        6.0810062625217952E-002
 CDOM          16          12   1.6641377664878949E-003   100.00000000000000        4.2852126867040187E-002
 CDOM          16          13   1.6641377664878949E-003   100.00000000000000        3.0197383422318501E-002
 abs          16           1  0.34144667579347204        7.8162867373545216E-003   3.8009908385685525E-003   6.3000000000000000E-003  0.33511619328688702        2.2332087356359927E-005   8.1504192286943669E-006
 abs          16           2  0.24128733374005268        6.0038758280095000E-003   2.9009324450338116E-003   5.1000000000000004E-003  0.23615239008114353        2.8364725740894171E-005   6.5789331682598314E-006
 abs          16           3  0.17474907440361537        4.6882755130871253E-003   2.2508505087707881E-003   8.3000000000000001E-003  0.16641377664878948        3.0077224862403915E-005   5.2205299634774375E-006
 abs          16           4  0.12919949446918705        3.7914238719708756E-003   1.8008668954468065E-003   1.1900000000000001E-002  0.11726980636951211        2.5426442561897079E-005   4.2616571130428065E-006
 abs          16           5  0.10416051902291583        3.0880827799571976E-003   1.4508439987685415E-003   2.1499999999999998E-002   8.2638635832214882E-002   1.8447229653547343E-005   3.4359610473907626E-006
 abs          16           6   9.8949011611790094E-002   2.4841357373774349E-003   1.1508152597638542E-003   4.0700000000000000E-002   5.8234462421563930E-002   1.1779113102694299E-005   2.7700771234778241E-006
 abs          16           7   9.6047196106576388E-002   2.0828701731443184E-003   9.5079732988268494E-004   5.5000000000000000E-002   4.1037132079648084E-002   7.8080121940814808E-006   2.2560147342170356E-006
 abs          16           8  0.11382498465983633        1.7796919388969523E-003   8.0077655333242459E-004   8.4900000000000003E-002   2.8918378212741749E-002   4.7632803931882379E-006   1.8431667013910137E-006
 abs          16           9  0.21988424113849850        1.5752875135021775E-003   7.0075321768199497E-004  0.19950000000000001        2.0378436700500244E-002   4.3208486157526041E-006   1.4835893824780267E-006
 abs          16          10  0.29936631743839237        1.3704277680068838E-003   6.0072941028082216E-004  0.28499999999999998        1.4360441629929237E-002   4.6798809358168996E-006   1.1959275273476376E-006
 abs          16          11  0.36132543542334256        1.0643700959439733E-003   4.5069834847517518E-004  0.35120000000000001        1.0119632179711921E-002   4.8337166373798105E-006   9.6952699321723830E-007
 abs          16          12  0.46304603959104274        8.6117567102544652E-004   3.5068406007916265E-004  0.45590000000000003        7.1311842693772163E-003   1.4061588028203852E-005   7.9373363730422254E-007
 abs          16          13  0.64832761716012810        8.5578811351395704E-004   3.5066183996071366E-004  0.64329999999999998        5.0252606202195694E-003   1.7146278058410184E-006   6.4191210265207265E-007
 CDOM          17           1   1.3006665836470157E-003   100.00000000000000        2.0137527074704766     
 CDOM          17           2   1.3006665836470157E-003   100.00000000000000        1.4190675485932573     
 CDOM          17           3   1.3006665836470157E-003   100.00000000000000        1.0000000000000000     
 CDOM          17           4   1.3006665836470157E-003   100.00000000000000       0.70468808971871344     
 CDOM          17           5   1.3006665836470157E-003   100.00000000000000       0.49658530379140947     
 CDOM          17           6   1.3006665836470157E-003   100.00000000000000       0.34993774911115533     
 CDOM          17           7   1.3006665836470157E-003   100.00000000000000       0.24659696394160643     
 CDOM          17           8   1.3006665836470157E-003   100.00000000000000       0.17377394345044514     
 CDOM          17           9   1.3006665836470157E-003   100.00000000000000       0.12245642825298191     
 CDOM          17          10   1.3006665836470157E-003   100.00000000000000        8.6293586499370495E-002
 CDOM          17          11   1.3006665836470157E-003   100.00000000000000        6.0810062625217952E-002
 CDOM          17          12   1.3006665836470157E-003   100.00000000000000        4.2852126867040187E-002
 CDOM          17          13   1.3006665836470157E-003   100.00000000000000        3.0197383422318501E-002
 abs          17           1  0.26824717722617070        7.7968906250551317E-003   3.8009298600255306E-003   6.3000000000000000E-003  0.26192208543355533        1.6933035685937433E-005   8.1587569294166069E-006
 abs          17           2  0.18970150387784687        5.9855297733672009E-003   2.9008750137362242E-003   5.1000000000000004E-003  0.18457337403931376        2.1544175260036416E-005   6.5856632730911818E-006
 abs          17           3  0.13839474970040608        4.6701465678736067E-003   2.2507936612375704E-003   8.3000000000000001E-003  0.13006665836470158        2.2865465252998761E-005   5.2258704515217476E-006
 abs          17           4  0.10357998974342057        3.7731833172284669E-003   1.8008096098697853E-003   1.1900000000000001E-002   9.1656425019118068E-002   1.9298707607373033E-005   4.2660166951197946E-006
 abs          17           5   8.6106627775251743E-002   3.0693467853148437E-003   1.4507852297182741E-003   2.1499999999999998E-002   6.4589191057168802E-002   1.3997242122491759E-005   3.4394759604403342E-006
 abs          17           6   8.6226917617607826E-002   2.4648874348516003E-003   1.1507555575089061E-003   4.0700000000000000E-002   4.5515233662553292E-002   8.9110442027091706E-006   2.7729108518278661E-006
 abs          17           7   8.7082211776543988E-002   2.0627168455926380E-003   9.5073547765910853E-004   5.5000000000000000E-002   3.2074043062765560E-002   5.9103911904579439E-006   2.2583225879790413E-006
 abs          17           8  0.10750764781359608        1.7593685788400515E-003   8.0071468469225678E-004   8.4900000000000003E-002   2.2602196135456019E-002   3.6066259194050067E-006   1.8450522206393111E-006
 abs          17           9  0.21543225520099185        1.5551083747253466E-003   7.0069202874642640E-004  0.19950000000000001        1.5927498418142186E-002   3.2716757876626333E-006   1.4851070619885782E-006
 abs          17          10  0.29622866131651232        1.3505762152646263E-003   6.0066938881949024E-004  0.28499999999999998        1.1223918434278446E-002   3.5457312988393805E-006   1.1971509350679923E-006
 abs          17          11  0.35911400290792572        1.0448069633852554E-003   4.5063947154041118E-004  0.35120000000000001        7.9093616406103306E-003   3.6707485172201430E-006   9.7051879813975310E-007
 abs          17          12  0.46148508157996776        8.4187238182649590E-004   3.5062587077830740E-004  0.45590000000000003        5.5736329454161657E-003   1.0654088942088603E-005   7.9454560946606160E-007
 abs          17          13  0.64722962100618842        8.3721044257147016E-004   3.5060588312591434E-004  0.64329999999999998        3.9276727530986036E-003   1.3056843251151737E-006   6.4256876470241899E-007
 CDOM          18           1   9.3742023280405002E-004   100.00000000000000        2.0137527074704766     
 CDOM          18           2   9.3742023280405002E-004   100.00000000000000        1.4190675485932573     
 CDOM          18           3   9.3742023280405002E-004   100.00000000000000        1.0000000000000000     
 CDOM          18           4   9.3742023280405002E-004   100.00000000000000       0.70468808971871344     
 CDOM          18           5   9.3742023280405002E-004   100.00000000000000       0.49658530379140947     
 CDOM          18           6   9.3742023280405002E-004   100.00000000000000       0.34993774911115533     
 CDOM          18           7   9.3742023280405002E-004   100.00000000000000       0.24659696394160643     
 CDOM          18           8   9.3742023280405002E-004   100.00000000000000       0.17377394345044514     
 CDOM          18           9   9.3742023280405002E-004   100.00000000000000       0.12245642825298191     
 CDOM          18          10   9.3742023280405002E-004   100.00000000000000        8.6293586499370495E-002
 CDOM          18          11   9.3742023280405002E-004   100.00000000000000        6.0810062625217952E-002
 CDOM          18          12   9.3742023280405002E-004   100.00000000000000        4.2852126867040187E-002
 CDOM          18          13   9.3742023280405002E-004   100.00000000000000        3.0197383422318501E-002
 abs          18           1  0.19509303071604198        7.7778484614695132E-003   3.8008695485754209E-003   6.3000000000000000E-003  0.18877325318467603        1.1609829765198910E-005   8.1677016007528586E-006
 abs          18           2  0.13814763382740805        5.9675364654521940E-003   2.9008182880566214E-003   5.1000000000000004E-003  0.13302626317669639        1.4777767393418487E-005   6.5928833182547577E-006
 abs          18           3  0.10206294367661285        4.6523648850703573E-003   2.2507374901251350E-003   8.3000000000000001E-003   9.3742023280404999E-002   1.5688796489724449E-005   5.2315997181292818E-006
 abs          18           4   7.7976395438502349E-002   3.7552890136265233E-003   1.8007529811545390E-003   1.1900000000000001E-002   6.6058887311835762E-002   1.3237433019142816E-005   4.2706936474524757E-006
 abs          18           5   6.8063952827340055E-002   3.0509751691984634E-003   1.4507271623738827E-003   2.1499999999999998E-002   4.6550911108721296E-002   9.5984718654862210E-006   3.4432467532585581E-006
 abs          18           6   7.3512753673369832E-002   2.4460613259658232E-003   1.1506967805340865E-003   4.0700000000000000E-002   3.2803872623870446E-002   6.1050986285277404E-006   2.7759508708441086E-006
 abs          18           7   7.8122807561476257E-002   2.0430521830638233E-003   9.5067479371283036E-004   5.5000000000000000E-002   2.3116498334691263E-002   4.0484283353772550E-006   2.2607984496201541E-006
 abs          18           8  0.10119423932902508        1.7395751460390827E-003   8.0065414838002076E-004   8.4900000000000003E-002   1.6289921052459411E-002   2.4712015631428309E-006   1.8470750025231955E-006
 abs          18           9  0.21098304241934096        1.5354759234385204E-003   7.0063223913650657E-004  0.19950000000000001        1.1479313348126274E-002   2.2423359886557312E-006   1.4867352260193928E-006
 abs          18          10  0.29309296423450160        1.3312747774766904E-003   6.0061079666564395E-004  0.28499999999999998        8.0893353945736320E-003   2.4303765232111091E-006   1.1984634048163509E-006
 abs          18          11  0.35690394793935476        1.0258038477913465E-003   4.5058208431526581E-004  0.35120000000000001        5.7004583062960669E-003   2.5180502538448458E-006   9.7158280479543808E-007
 abs          18          12  0.45992514308451793        8.2312141015797248E-004   3.5056912970467740E-004  0.45590000000000003        4.0170450743849499E-003   7.3025934411325806E-006   7.9541669183802340E-007
 abs          18          13  0.64613230315753944        8.1917036737585395E-004   3.5055133639413477E-004  0.64329999999999998        2.8307638197822968E-003   8.9606452650758814E-007   6.4327323064752898E-007
 CDOM          19           1   5.7420711370748220E-004   100.00000000000000        2.0137527074704766     
 CDOM          19           2   5.7420711370748220E-004   100.00000000000000        1.4190675485932573     
 CDOM          19           3   5.7420711370748220E-004   100.00000000000000        1.0000000000000000     
 CDOM          19           4   5.7420711370748220E-004   100.00000000000000       0.70468808971871344     
 CDOM          19           5   5.7420711370748220E-004   100.00000000000000       0.49658530379140947     
 CDOM          19           6   5.7420711370748220E-004   100.00000000000000       0.34993774911115533     
 CDOM          19           7   5.7420711370748220E-004   100.00000000000000       0.24659696394160643     
 CDOM          19           8   5.7420711370748220E-004   100.00000000000000       0.17377394345044514     
 CDOM          19           9   5.7420711370748220E-004   100.00000000000000       0.12245642825298191     
 CDOM          19          10   5.7420711370748220E-004   100.00000000000000        8.6293586499370495E-002
 CDOM          19          11   5.7420711370748220E-004   100.00000000000000        6.0810062625217952E-002
 CDOM          19          12   5.7420711370748220E-004   100.00000000000000        4.2852126867040187E-002
 CDOM          19          13   5.7420711370748220E-004   100.00000000000000        3.0197383422318501E-002
 abs          19           1  0.12194554800804701        7.7587605650248533E-003   3.8008089893120062E-003   6.3000000000000000E-003  0.11563111298772502        6.2583594139977541E-006   8.1766609079916805E-006
 abs          19           2   8.6598434508996083E-002   5.9495024995513757E-003   2.9007613422818508E-003   5.1000000000000004E-003   8.1483868123368663E-002   7.9662704500605243E-006   6.6001151773658336E-006
 abs          19           3   6.5734406443167581E-002   4.6345415143992756E-003   2.2506810928322528E-003   8.3000000000000001E-003   5.7420711370748223E-002   8.4577340599873341E-006   5.2373383593672207E-006
 abs          19           4   5.2375102941420247E-002   3.7373511879914873E-003   1.8006961159129735E-003   1.1900000000000001E-002   4.0463691406142172E-002   7.1361570255288499E-006   4.2753782525446702E-006
 abs          19           5   5.0022902492695316E-002   3.0325593225669378E-003   1.4506688544604471E-003   2.1499999999999998E-002   2.8514281399961847E-002   5.1740690173485243E-006   3.4470237161141401E-006
 abs          19           6   6.0799744077389403E-002   2.4271974029215480E-003   1.1506377985253935E-003   4.0700000000000000E-002   2.0093674489440955E-002   3.2905920842960312E-006   2.7789958641540353E-006
 abs          19           7   6.9164218101812086E-002   2.0233554154203866E-003   9.5061393644857634E-004   5.5000000000000000E-002   1.4159773091393791E-002   2.1817320558563585E-006   2.2632783624408346E-006
 abs          19           8   9.4881404455183296E-002   1.7197547582074302E-003   8.0059346711874369E-004   8.4900000000000003E-002   9.9782234506247333E-003   1.3319034643222401E-006   1.8491010942255697E-006
 abs          19           9  0.20653423229188952        1.5158188203679896E-003   7.0057231700672816E-004  0.19950000000000001        7.0315352222072120E-003   1.2087036281242864E-006   1.4883660541671132E-006
 abs          19          10  0.28995754895539400        1.3119510580056968E-003   6.0055208502529081E-004  0.28499999999999998        4.9550391235270485E-003   1.3100538448239547E-006   1.1997780221203480E-006
 abs          19          11  0.35469408713377149        1.0067821131611390E-003   4.5052459788971869E-004  0.35120000000000001        3.4917570544397642E-003   1.3574307792059358E-006   9.7264855245391220E-007
 abs          19          12  0.45836533229755483        8.0434994328978373E-004   3.5051227854075218E-004  0.45590000000000003        2.4605996084549999E-003   3.9363999002741509E-006   7.9628919953644470E-007
 abs          19          13  0.64503508225992290        8.0111052676615517E-004   3.5049668326246939E-004  0.64329999999999998        1.7339552376447679E-003   4.8304342894064349E-007   6.4397884928954088E-007
 CDOM          20           1   2.1104439816683313E-004   100.00000000000000        2.0137527074704766     
 CDOM          20           2   2.1104439816683313E-004   100.00000000000000        1.4190675485932573     
 CDOM          20           3   2.1104439816683313E-004   100.00000000000000        1.0000000000000000     
 CDOM          20           4   2.1104439816683313E-004   100.00000000000000       0.70468808971871344     
 CDOM          20           5   2.1104439816683313E-004   100.00000000000000       0.49658530379140947     
 CDOM          20           6   2.1104439816683313E-004   100.00000000000000       0.34993774911115533     
 CDOM          20           7   2.1104439816683313E-004   100.00000000000000       0.24659696394160643     
 CDOM          20           8   2.1104439816683313E-004   100.00000000000000       0.17377394345044514     
 CDOM          20           9   2.1104439816683313E-004   100.00000000000000       0.12245642825298191     
 CDOM          20          10   2.1104439816683313E-004   100.00000000000000        8.6293586499370495E-002
 CDOM          20          11   2.1104439816683313E-004   100.00000000000000        6.0810062625217952E-002
 CDOM          20          12   2.1104439816683313E-004   100.00000000000000        4.2852126867040187E-002
 CDOM          20          13   2.1104439816683313E-004   100.00000000000000        3.0197383422318501E-002
 abs          20           1   4.8808210212836933E-002   7.7396651394938546E-003   3.8007484029960164E-003   6.3000000000000000E-003   4.2499122820493750E-002   9.0157641320950520E-007   8.1858159299753264E-006
 abs          20           2   3.5056380302890197E-002   5.9314615549162395E-003   2.9007043720838651E-003   5.1000000000000004E-003   2.9948625675094723E-002   1.1471227800951271E-006   6.6075050153722404E-006
 abs          20           3   2.9410900823853666E-002   4.6167106649204499E-003   2.2506246684174057E-003   8.3000000000000001E-003   2.1104439816683314E-002   1.2178048099750516E-006   5.2432023603763530E-006
 abs          20           4   2.6777355484146923E-002   3.7194056551355216E-003   1.8006392224526595E-003   1.1900000000000001E-002   1.4872047379002119E-002   1.0279399526573990E-006   4.2801651921439618E-006
 abs          20           5   3.1984350654243848E-002   3.0141352797016614E-003   1.4506105163554954E-003   2.1499999999999998E-002   1.0480154657715202E-002   7.4511334248232055E-007   3.4508831861660693E-006
 abs          20           6   4.8088496319977102E-002   2.4083253864553653E-003   1.1505787882533311E-003   4.0700000000000000E-002   7.3852401657020028E-003   4.7404690020493339E-007   2.7821073748935752E-006
 abs          20           7   6.0206870542109700E-002   2.0036504760303376E-003   9.5055305218311517E-004   5.5000000000000000E-002   5.2042907844824585E-003   3.1394517865574634E-007   2.2658124485912098E-006
 abs          20           8   8.8569444676111234E-002   1.6999263513632944E-003   8.0053276064359050E-004   8.4900000000000003E-002   3.6674017312576489E-003   1.9177340796631258E-007   1.8511714456022635E-006
 abs          20           9  0.20208603852058357        1.4961537039073426E-003   7.0051237012008403E-004  0.19950000000000001        2.5843743202310547E-003   1.7416784497424487E-007   1.4900325075151167E-006
 abs          20          10  0.28682256765462905        1.2926195490793725E-003   6.0049334978888504E-004  0.28499999999999998        1.8211778028417204E-003   1.8873043026946412E-007   1.2011213570453994E-006
 abs          20          11  0.35248453152145481        9.8775290858163002E-004   4.5046708963916634E-004  0.35120000000000001        1.2833623069226556E-003   1.9547695089500257E-007   9.7373758121275133E-007
 abs          20          12  0.45680573449673556        7.8557069852056472E-004   3.5045540387991796E-004  0.45590000000000003        9.0437013248232767E-004   5.6718348619878780E-007   7.9718076703681276E-007
 abs          20          13  0.64393801306197829        7.8304310493784387E-004   3.5044200723571817E-004  0.64329999999999998        6.3729886105763124E-004   6.9501038562904758E-008   6.4469988206668420E-007
 CDOM          21           1   1.2033224799073366E-004   100.00000000000000        2.0137527074704766     
 CDOM          21           2   1.2033224799073366E-004   100.00000000000000        1.4190675485932573     
 CDOM          21           3   1.2033224799073366E-004   100.00000000000000        1.0000000000000000     
 CDOM          21           4   1.2033224799073366E-004   100.00000000000000       0.70468808971871344     
 CDOM          21           5   1.2033224799073366E-004   100.00000000000000       0.49658530379140947     
 CDOM          21           6   1.2033224799073366E-004   100.00000000000000       0.34993774911115533     
 CDOM          21           7   1.2033224799073366E-004   100.00000000000000       0.24659696394160643     
 CDOM          21           8   1.2033224799073366E-004   100.00000000000000       0.17377394345044514     
 CDOM          21           9   1.2033224799073366E-004   100.00000000000000       0.12245642825298191     
 CDOM          21          10   1.2033224799073366E-004   100.00000000000000        8.6293586499370495E-002
 CDOM          21          11   1.2033224799073366E-004   100.00000000000000        6.0810062625217952E-002
 CDOM          21          12   1.2033224799073366E-004   100.00000000000000        4.2852126867040187E-002
 CDOM          21          13   1.2033224799073366E-004   100.00000000000000        3.0197383422318501E-002
 abs          21           1   3.0540155610111461E-002   7.7369227934925367E-003   3.8007407410411012E-003   6.3000000000000000E-003   2.4231939018734876E-002   1.4992344366137250E-009   8.2150921421484798E-006
 abs          21           2   2.2182591754741757E-002   5.9288686095464328E-003   2.9006971683116101E-003   5.1000000000000004E-003   1.7075958817292635E-002   1.8009814414841723E-009   6.6311364676819430E-006
 abs          21           3   2.0338488643806704E-002   4.6141029108530459E-003   2.2506172859082909E-003   8.3000000000000001E-003   1.2033224799073367E-002   1.8902893437095238E-009   5.2619544439905303E-006
 abs          21           4   2.0383967356026770E-002   3.7167876281693473E-003   1.8006318101182917E-003   1.1900000000000001E-002   8.4796701968148595E-003   1.6861964085067344E-009   4.2954730155024733E-006
 abs          21           5   2.7478987001895331E-002   3.0114184737006912E-003   1.4506027625256382E-003   2.1499999999999998E-002   5.9755225924381702E-003   1.1843384131063372E-009   3.4632251187488694E-006
 abs          21           6   4.4913672451270745E-002   2.4055125119702403E-003   1.1505708104563729E-003   4.0700000000000000E-002   4.2108796007362687E-003   7.9307440033576780E-010   2.7920574600766075E-006
 abs          21           7   5.7969631070312562E-002   2.0006805186451619E-003   9.5054466830878732E-004   5.5000000000000000E-002   2.9673567018783393E-003   4.5240664197136875E-010   2.2739160275816221E-006
 abs          21           8   8.6992919017471831E-002   1.6969221837435813E-003   8.0052433518033861E-004   8.4900000000000003E-002   2.0910609257606691E-003   2.9963196457590361E-010   1.8577920792048198E-006
 abs          21           9  0.20097504138981773        1.4931637200677095E-003   7.0050400168970427E-004  0.19950000000000001        1.4735457292597304E-003   2.9901444599728688E-010   1.4953615435217984E-006
 abs          21          10  0.28603959585751809        1.2896736040734207E-003   6.0048512026159451E-004  0.28499999999999998        1.0383901250652077E-003   3.1533796170600281E-010   1.2054171149753817E-006
 abs          21          11  0.35193271868262160        9.8484117065449355E-004   4.5045897684635412E-004  0.35120000000000001        7.3174115361497713E-004   3.0889558573258426E-010   9.7722011102681255E-007
 abs          21          12  0.45641645027449834        7.8269342278301768E-004   3.5044735756274015E-004  0.45590000000000003        5.1564927570950608E-004   9.6693962571833177E-010   8.0003184913733557E-007
 abs          21          13  0.64366401900593817        7.8027706289120896E-004   3.5043428544173291E-004  0.64329999999999998        3.6337190306456998E-004   9.7250698561956629E-011   6.4700562296006004E-007
 CDOM          22           1   8.5941035122114983E-005   100.00000000000000        2.0137527074704766     
 CDOM          22           2   8.5941035122114983E-005   100.00000000000000        1.4190675485932573     
 CDOM          22           3   8.5941035122114983E-005   100.00000000000000        1.0000000000000000     
 CDOM          22           4   8.5941035122114983E-005   100.00000000000000       0.70468808971871344     
 CDOM          22           5   8.5941035122114983E-005   100.00000000000000       0.49658530379140947     
 CDOM          22           6   8.5941035122114983E-005   100.00000000000000       0.34993774911115533     
 CDOM          22           7   8.5941035122114983E-005   100.00000000000000       0.24659696394160643     
 CDOM          22           8   8.5941035122114983E-005   100.00000000000000       0.17377394345044514     
 CDOM          22           9   8.5941035122114983E-005   100.00000000000000       0.12245642825298191     
 CDOM          22          10   8.5941035122114983E-005   100.00000000000000        8.6293586499370495E-002
 CDOM          22          11   8.5941035122114983E-005   100.00000000000000        6.0810062625217952E-002
 CDOM          22          12   8.5941035122114983E-005   100.00000000000000        4.2852126867040187E-002
 CDOM          22          13   8.5941035122114983E-005   100.00000000000000        3.0197383422318501E-002
 abs          22           1   2.3614647372723976E-002   7.7374692645762839E-003   3.8007437087136209E-003   6.3000000000000000E-003   1.7306399215997435E-002   1.0379932337258961E-012   8.2481556885492986E-006
 abs          22           2   1.7302271229683575E-002   5.9293828373238782E-003   2.9006999611424483E-003   5.1000000000000004E-003   1.2195613403430674E-002   1.2363308958372014E-012   6.6578250165741072E-006
 abs          22           3   1.6899386645908673E-002   4.6145577208883759E-003   2.2506197572625375E-003   8.3000000000000001E-003   8.5941035122114977E-003   1.2953607222923360E-012   5.2831324018158913E-006
 abs          22           4   1.7960475149174683E-002   3.7172531966372592E-003   1.8006343397862555E-003   1.1900000000000001E-002   6.0561623868652060E-003   1.1651358064723878E-012   4.3127611443395028E-006
 abs          22           5   2.5771182667913534E-002   3.0118622453415289E-003   1.4506051747394078E-003   2.1499999999999998E-002   4.2677055034263658E-003   8.1454591809353501E-013   3.4771636726237244E-006
 abs          22           6   4.3710204533984949E-002   2.4059321990039240E-003   1.1505730931881241E-003   4.0700000000000000E-002   3.0074012386915659E-003   5.4955960154116966E-013   2.8032947438206767E-006
 abs          22           7   5.7121562902148350E-002   2.0010803430209655E-003   9.5054684464648776E-004   5.5000000000000000E-002   2.1192798339112521E-003   3.0631259921010221E-013   2.2830679307847245E-006
 abs          22           8   8.6395296527138774E-002   1.6973066771776724E-003   8.0052642911387461E-004   8.4900000000000003E-002   1.4934312577383128E-003   2.0553825767600970E-013   1.8652691949268351E-006
 abs          22           9  0.20055390460032316        1.4935330112404502E-003   7.0050601358099087E-004  0.19950000000000001        1.0524032201418270E-003   2.0795427144528197E-013   1.5013799733731894E-006
 abs          22          10  0.28574282628363018        1.2900288927850372E-003   6.0048705630020931E-004  0.28499999999999998        7.4161601481556670E-004   2.1847263691439382E-013   1.2102685961302731E-006
 abs          22          11  0.35172358912615781        9.8517703648534605E-004   4.5046080775765603E-004  0.35120000000000001        5.2260797278518673E-004   2.1225930627932485E-013   9.8115316033723679E-007
 abs          22          12  0.45626907886644874        7.8302065591113177E-004   3.5044914173875535E-004  0.45590000000000003        3.6827561401376273E-004   6.7181854977313615E-013   8.0325176313323229E-007
 abs          22          13  0.64356016904864222        7.8059472766350141E-004   3.5043601746719542E-004  0.64329999999999998        2.5951943892934469E-004   6.5513075237782088E-014   6.4960964736613756E-007
 CDOM          23           1   5.1575370169771294E-005   100.00000000000000        2.0137527074704766     
 CDOM          23           2   5.1575370169771294E-005   100.00000000000000        1.4190675485932573     
 CDOM          23           3   5.1575370169771294E-005   100.00000000000000        1.0000000000000000     
 CDOM          23           4   5.1575370169771294E-005   100.00000000000000       0.70468808971871344     
 CDOM          23           5   5.1575370169771294E-005   100.00000000000000       0.49658530379140947     
 CDOM          23           6   5.1575370169771294E-005   100.00000000000000       0.34993774911115533     
 CDOM          23           7   5.1575370169771294E-005   100.00000000000000       0.24659696394160643     
 CDOM          23           8   5.1575370169771294E-005   100.00000000000000       0.17377394345044514     
 CDOM          23           9   5.1575370169771294E-005   100.00000000000000       0.12245642825298191     
 CDOM          23          10   5.1575370169771294E-005   100.00000000000000        8.6293586499370495E-002
 CDOM          23          11   5.1575370169771294E-005   100.00000000000000        6.0810062625217952E-002
 CDOM          23          12   5.1575370169771294E-005   100.00000000000000        4.2852126867040187E-002
 CDOM          23          13   5.1575370169771294E-005   100.00000000000000        3.0197383422318501E-002
 abs          23           1   1.6694285531033404E-002   7.7380233202716947E-003   3.8007467061626681E-003   6.3000000000000000E-003   1.0386004131816900E-002   2.4446544102604218E-016   8.2813992162580102E-006
 abs          23           2   1.2425578070305504E-002   5.9299043014322010E-003   2.9007027822707462E-003   5.1000000000000004E-003   7.3188934114607161E-003   2.9086044228864047E-016   6.6846588444958445E-006
 abs          23           3   1.3462841442619222E-002   4.6150194335598414E-003   2.2506222551355571E-003   8.3000000000000001E-003   5.1575370169771291E-003   3.0467900322664935E-016   5.3044256417861767E-006
 abs          23           4   1.5538785051528489E-002   3.7177257731730059E-003   1.8006368964328643E-003   1.1900000000000001E-002   3.6344549081471647E-003   2.7434078278647158E-016   4.3301433810499410E-006
 abs          23           5   2.4064648264492190E-002   3.0123130939467249E-003   1.4506076138382498E-003   2.1499999999999998E-002   2.5611570863910272E-003   1.9167700650766883E-016   3.4911781009715145E-006
 abs          23           6   4.2507631487876250E-002   2.4063591467978381E-003   1.1505754029841743E-003   4.0700000000000000E-002   1.8048168946784391E-003   1.2944508948990465E-016   2.8145931976824611E-006
 abs          23           7   5.6274125239455422E-002   2.0014877354942290E-003   9.5054904864902152E-004   5.5000000000000000E-002   1.2718329698030095E-003   7.1934849090064261E-017   2.2922696523433123E-006
 abs          23           8   8.5798118332944109E-002   1.6976988600358482E-003   8.0052855083279171E-004   8.4900000000000003E-002   8.9624554593176111E-004   4.8350547151119479E-017   1.8727870123040992E-006
 abs          23           9  0.20013308099284616        1.4939099845774448E-003   7.0050805301656170E-004  0.19950000000000001        6.3157356168155811E-004   4.9004774117552530E-017   1.5074311645280104E-006
 abs          23          10  0.28544627751318458        1.2903917430803357E-003   6.0048901933006235E-004  0.28499999999999998        4.4506236669822119E-004   5.1458560864870035E-017   1.2151464863071395E-006
 abs          23          11  0.35151461525661354        9.8552033177665187E-004   4.5046266499490940E-004  0.35120000000000001        3.1363014899425901E-004   4.9942678650586685E-017   9.8510761918886135E-007
 abs          23          12  0.45612181791977785        7.8335526008612658E-004   3.5045095195706367E-004  0.45590000000000003        2.2101143057295992E-004   1.5829563799780303E-016   8.0648920472055128E-007
 abs          23          13  0.64345639635066321        7.8091955443426167E-004   3.5043777478948712E-004  0.64329999999999998        1.5574412281645918E-004   1.5374974809862781E-017   6.5222784677064728E-007
 CDOM          24           1   1.7200952968748833E-005   100.00000000000000        2.0137527074704766     
 CDOM          24           2   1.7200952968748833E-005   100.00000000000000        1.4190675485932573     
 CDOM          24           3   1.7200952968748833E-005   100.00000000000000        1.0000000000000000     
 CDOM          24           4   1.7200952968748833E-005   100.00000000000000       0.70468808971871344     
 CDOM          24           5   1.7200952968748833E-005   100.00000000000000       0.49658530379140947     
 CDOM          24           6   1.7200952968748833E-005   100.00000000000000       0.34993774911115533     
 CDOM          24           7   1.7200952968748833E-005   100.00000000000000       0.24659696394160643     
 CDOM          24           8   1.7200952968748833E-005   100.00000000000000       0.17377394345044514     
 CDOM          24           9   1.7200952968748833E-005   100.00000000000000       0.12245642825298191     
 CDOM          24          10   1.7200952968748833E-005   100.00000000000000        8.6293586499370495E-002
 CDOM          24          11   1.7200952968748833E-005   100.00000000000000        6.0810062625217952E-002
 CDOM          24          12   1.7200952968748833E-005   100.00000000000000        4.2852126867040187E-002
 CDOM          24          13   1.7200952968748833E-005   100.00000000000000        3.0197383422318501E-002
 abs          24           1   9.7721624491017931E-003   7.7385981318794077E-003   3.8007498158934678E-003   6.3000000000000000E-003   3.4638465611890293E-003   1.2697387222165366E-020   8.3158879127644765E-006
 abs          24           2   7.5476439140426815E-003   5.9304453005923838E-003   2.9007057090762044E-003   5.1000000000000004E-003   2.4409314162830318E-003   1.5095382132406661E-020   6.7124977596497570E-006
 abs          24           3   1.0025421813315739E-002   4.6154984432328393E-003   2.2506248465778895E-003   8.3000000000000001E-003   1.7200952968748832E-003   1.5810000535123893E-020   5.3265164408556778E-006
 abs          24           4   1.3116478845575319E-002   3.7182160536618479E-003   1.8006395488503106E-003   1.1900000000000001E-002   1.2121306688889048E-003   1.4246542022927321E-020   4.3481766864127986E-006
 abs          24           5   2.2357679763002208E-002   3.0127808328038316E-003   1.4506101443054686E-003   2.1499999999999998E-002   8.5417404554878856E-004   9.9495647492042482E-021   3.5057174534203188E-006
 abs          24           6   4.1304752591291245E-002   2.4068020898600144E-003   1.1505777993061426E-003   4.0700000000000000E-002   6.0192627644508115E-004   6.7238276326020368E-021   2.8263148461683188E-006
 abs          24           7   5.5426472093932949E-002   2.0019103910878001E-003   9.5055133521578503E-004   5.5000000000000000E-002   4.2417027789958239E-004   3.7285869531167502E-021   2.3018160333697754E-006
 abs          24           8   8.5200788329265378E-002   1.6981057364871888E-003   8.0053075203439573E-004   8.4900000000000003E-002   2.9890774284851258E-004   2.5091778148329587E-021   1.8805864168735354E-006
 abs          24           9  0.19971215043531904        1.4943010818865776E-003   7.0051016885300634E-004  0.19950000000000001        2.1063672631005075E-004   2.5463122775473628E-021   1.5137090089574554E-006
 abs          24          10  0.28514965339937060        1.2907681883288671E-003   6.0049105589885909E-004  0.28499999999999998        1.4843319228803311E-004   2.6728916429849425E-021   1.2202070826245916E-006
 abs          24          11  0.35130558831292047        9.8587648955665271E-004   4.5046459180850149E-004  0.35120000000000001        1.0459910272430452E-004   2.5922128429808259E-021   9.8921019615891156E-007
 abs          24          12  0.45597451958979296        7.8370240121344631E-004   3.5045282999056473E-004  0.45590000000000003        7.3709741885081656E-005   8.2243968637923386E-021   8.0984790784438363E-007
 abs          24          13  0.64335259732131600        7.8125655182733917E-004   3.5043959794538588E-004  0.64329999999999998        5.1942377202657616E-005   7.9654969750933605E-022   6.5494411339092773E-007
 CDOM          25           1   1.4491269828443622E-008   100.00000000000000        2.0137527074704766     
 CDOM          25           2   1.4491269828443622E-008   100.00000000000000        1.4190675485932573     
 CDOM          25           3   1.4491269828443622E-008   100.00000000000000        1.0000000000000000     
 CDOM          25           4   1.4491269828443622E-008   100.00000000000000       0.70468808971871344     
 CDOM          25           5   1.4491269828443622E-008   100.00000000000000       0.49658530379140947     
 CDOM          25           6   1.4491269828443622E-008   100.00000000000000       0.34993774911115533     
 CDOM          25           7   1.4491269828443622E-008   100.00000000000000       0.24659696394160643     
 CDOM          25           8   1.4491269828443622E-008   100.00000000000000       0.17377394345044514     
 CDOM          25           9   1.4491269828443622E-008   100.00000000000000       0.12245642825298191     
 CDOM          25          10   1.4491269828443622E-008   100.00000000000000        8.6293586499370495E-002
 CDOM          25          11   1.4491269828443622E-008   100.00000000000000        6.0810062625217952E-002
 CDOM          25          12   1.4491269828443622E-008   100.00000000000000        4.2852126867040187E-002
 CDOM          25          13   1.4491269828443622E-008   100.00000000000000        3.0197383422318501E-002
 abs          25           1   6.3111700696357768E-003   7.7375314375100999E-003   3.8007440450769296E-003   6.3000000000000000E-003   2.9181833851713574E-006   5.6400502636032639E-025   8.2518862506060186E-006
 abs          25           2   5.1087172453624001E-003   5.9294413529506823E-003   2.9007002777194629E-003   5.1000000000000004E-003   2.0564090751452923E-006   6.8232111921158318E-025   6.6608362872538768E-006
 abs          25           3   8.3067346488949981E-003   4.6146095312584162E-003   2.2506200375641077E-003   8.3000000000000001E-003   1.4491269828443621E-006   7.1719058048733108E-025   5.2855219121528745E-006
 abs          25           4   1.1905335894290324E-002   3.7173062261115562E-003   1.8006346266832634E-003   1.1900000000000001E-002   1.0211825253004363E-006   6.3538369527868795E-025   4.3147117650227553E-006
 abs          25           5   2.1504198351523555E-002   3.0119128364052773E-003   1.4506054484449524E-003   2.1499999999999998E-002   7.1961516300809616E-007   4.4800661954116623E-025   3.4787363605495961E-006
 abs          25           6   4.0703311666881820E-002   2.4059801077283712E-003   1.1505733523828104E-003   4.0700000000000000E-002   5.0710423455279592E-007   2.9813466984162211E-025   2.8045626472647905E-006
 abs          25           7   5.5002641450854942E-002   2.0011260569927206E-003   9.5054709196833057E-004   5.5000000000000000E-002   3.5735031433528008E-007   1.7332890520247001E-025   2.2841005406089211E-006
 abs          25           8   8.4902117933348745E-002   1.6973506841983261E-003   8.0052666720151298E-004   8.4900000000000003E-002   2.5182051036931037E-007   1.1358746301555871E-025   1.8661128383723415E-006
 abs          25           9  0.19950167951394762        1.4935753114039309E-003   7.0050624243469530E-004  0.19950000000000001        1.7745491440414078E-007   1.1206483473861233E-025   1.5020590331985464E-006
 abs          25          10  0.28500133586635368        1.2900696080948499E-003   6.0048727657979306E-004  0.28499999999999998        1.2505036464265175E-007   1.1856109744497030E-025   1.2108159890595106E-006
 abs          25          11  0.35120106971842913        9.8521555735919938E-004   4.5046101616531326E-004  0.35120000000000001        8.8121502578658797E-008   1.1693319215758512E-025   9.8159692654267656E-007
 abs          25          12  0.45590086571323957        7.8305820147668798E-004   3.5044934486998887E-004  0.45590000000000003        6.2098173315297768E-008   3.6268746115323419E-025   8.0361506623548801E-007
 abs          25          13  0.64330069366330267        7.8063117610886268E-004   3.5043621466274892E-004  0.64329999999999998        4.3759843128578770E-008   3.7410506247982801E-026   6.4990345960655242E-007
 CDOM          26           1   1.3331167992627195E-008   100.00000000000000        2.0137527074704766     
 CDOM          26           2   1.3331167992627195E-008   100.00000000000000        1.4190675485932573     
 CDOM          26           3   1.3331167992627195E-008   100.00000000000000        1.0000000000000000     
 CDOM          26           4   1.3331167992627195E-008   100.00000000000000       0.70468808971871344     
 CDOM          26           5   1.3331167992627195E-008   100.00000000000000       0.49658530379140947     
 CDOM          26           6   1.3331167992627195E-008   100.00000000000000       0.34993774911115533     
 CDOM          26           7   1.3331167992627195E-008   100.00000000000000       0.24659696394160643     
 CDOM          26           8   1.3331167992627195E-008   100.00000000000000       0.17377394345044514     
 CDOM          26           9   1.3331167992627195E-008   100.00000000000000       0.12245642825298191     
 CDOM          26          10   1.3331167992627195E-008   100.00000000000000        8.6293586499370495E-002
 CDOM          26          11   1.3331167992627195E-008   100.00000000000000        6.0810062625217952E-002
 CDOM          26          12   1.3331167992627195E-008   100.00000000000000        4.2852126867040187E-002
 CDOM          26          13   1.3331167992627195E-008   100.00000000000000        3.0197383422318501E-002
 abs          26           1   6.3108322072673332E-003   7.7357939950573927E-003   3.8007346455132605E-003   6.3000000000000000E-003   2.6845675638896771E-006   8.9082368537404672E-021   8.1476397034435508E-006
 abs          26           2   5.1084684723528631E-003   5.9278061129951929E-003   2.9006914310713036E-003   5.1000000000000004E-003   1.8917827883182367E-006   1.1341081998074922E-020   6.5766895645443033E-006
 abs          26           3   8.3065518664132334E-003   4.6131616625478267E-003   2.2506122045943835E-003   8.3000000000000001E-003   1.3331167992627194E-006   1.2041312383710608E-020   5.2187496139703787E-006
 abs          26           4   1.1905199635297152E-002   3.7158242899018937E-003   1.8006266094083693E-003   1.1900000000000001E-002   9.3943153064437130E-007   1.0158342115710944E-020   4.2602037665064323E-006
 abs          26           5   2.1504096795497498E-002   3.0104990351937605E-003   1.4505977997803982E-003   2.1499999999999998E-002   6.6200621075130896E-007   7.3656509563936213E-021   3.4347892867458108E-006
 abs          26           6   4.0703235640340271E-002   2.4046412550148143E-003   1.1505661091896302E-003   4.0700000000000000E-002   4.6650789203626391E-007   4.6835386612504848E-021   2.7691324482291807E-006
 abs          26           7   5.5002583987924167E-002   1.9998485257774943E-003   9.5054018052445621E-004   5.5000000000000000E-002   3.2874255527773858E-007   3.1061900759996291E-021   2.2552453688943426E-006
 abs          26           8   8.4902074199092306E-002   1.6961208474818015E-003   8.0052001378487655E-004   8.4900000000000003E-002   2.3166096328791822E-007   1.8960071981869580E-021   1.8425381290140318E-006
 abs          26           9  0.19950164633215792        1.4923931691861081E-003   7.0049984704529679E-004  0.19950000000000001        1.6324872168176007E-007   1.7203129671447836E-021   1.4830834362150514E-006
 abs          26          10  0.28500131055911176        1.2889317536258216E-003   6.0048112078711559E-004  0.28499999999999998        1.1503942983094141E-007   1.8646885179714033E-021   1.1955196819758675E-006
 abs          26          11  0.35120105026327297        9.8413902438850205E-004   4.5045519212194178E-004  0.35120000000000001        8.1066916049896071E-008   1.9324732922791703E-021   9.6919635688021323E-007
 abs          26          12  0.45590085058984176        7.8200892250524878E-004   3.5044366827075338E-004  0.45590000000000003        5.7126890210588594E-008   5.6026860980199546E-021   7.9346295151182281E-007
 abs          26          13  0.64330068194983148        7.7961255788658898E-004   3.5043070393816643E-004  0.64329999999999998        4.0256639134070342E-008   6.8786200623875802E-022   6.4169319233003126E-007
 CDOM          27           1   1.2287861820631843E-008   100.00000000000000        2.0137527074704766     
 CDOM          27           2   1.2287861820631843E-008   100.00000000000000        1.4190675485932573     
 CDOM          27           3   1.2287861820631843E-008   100.00000000000000        1.0000000000000000     
 CDOM          27           4   1.2287861820631843E-008   100.00000000000000       0.70468808971871344     
 CDOM          27           5   1.2287861820631843E-008   100.00000000000000       0.49658530379140947     
 CDOM          27           6   1.2287861820631843E-008   100.00000000000000       0.34993774911115533     
 CDOM          27           7   1.2287861820631843E-008   100.00000000000000       0.24659696394160643     
 CDOM          27           8   1.2287861820631843E-008   100.00000000000000       0.17377394345044514     
 CDOM          27           9   1.2287861820631843E-008   100.00000000000000       0.12245642825298191     
 CDOM          27          10   1.2287861820631843E-008   100.00000000000000        8.6293586499370495E-002
 CDOM          27          11   1.2287861820631843E-008   100.00000000000000        6.0810062625217952E-002
 CDOM          27          12   1.2287861820631843E-008   100.00000000000000        4.2852126867040187E-002
 CDOM          27          13   1.2287861820631843E-008   100.00000000000000        3.0197383422318501E-002
 abs          27           1   6.3099871760527414E-003   7.7252117425083248E-003   3.8006773955269577E-003   6.3000000000000000E-003   2.4744715010320475E-006   1.5423330059607263E-015   7.5127045501669458E-006
 abs          27           2   5.1078079071457533E-003   5.9178463458902063E-003   2.9006375487312542E-003   5.1000000000000004E-003   1.7437305951256709E-006   1.9635410481666243E-015   6.0641765486641674E-006
 abs          27           3   8.3060408453077845E-003   4.6043431187574885E-003   2.2505644962724663E-003   8.3000000000000001E-003   1.2287861820631843E-006   2.0847747802831538E-015   4.8120591236363438E-006
 abs          27           4   1.1904794122518570E-002   3.7067982509634599E-003   1.8005777785377005E-003   1.1900000000000001E-002   8.6591098731085652E-007   1.7587698529707305E-015   3.9282115294990563E-006
 abs          27           5   2.1503777317706450E-002   3.0018879865517218E-003   1.4505512140072327E-003   2.1499999999999998E-002   6.1019715951453256E-007   1.2752543631703420E-015   3.1671205456586143E-006
 abs          27           6   4.0702983336165677E-002   2.3964866956987878E-003   1.1505219930237180E-003   4.0700000000000000E-002   4.2999867069008103E-007   8.1088749844957840E-016   2.5533374941743868E-006
 abs          27           7   5.5002382511920800E-002   1.9920674577283393E-003   9.5049808494629710E-004   5.5000000000000000E-002   3.0301494183017931E-007   5.3778944152528140E-016   2.0794969784285631E-006
 abs          27           8   8.4901912482507363E-002   1.6886302726400620E-003   8.0047948977496938E-004   8.4900000000000003E-002   2.1353102051453617E-007   3.2826562187718762E-016   1.6989514865083419E-006
 abs          27           9  0.19950151798140597        1.4851930875517019E-003   7.0046089460364135E-004  0.19950000000000001        1.5047276694207589E-007   2.9784779158418697E-016   1.3675086387068590E-006
 abs          27          10  0.28500120839072746        1.2820014156838865E-003   6.0044362765883656E-004  0.28499999999999998        1.0603636669110062E-007   3.2284403815675515E-016   1.1023543604656727E-006
 abs          27          11  0.35120096839068798        9.7758217771311165E-004   4.5041971958141482E-004  0.35120000000000001        7.4722564684264707E-008   3.3457931976725421E-016   8.9366812296103532E-007
 abs          27          12  0.45590078428549968        7.7561807194828939E-004   3.5040909376922739E-004  0.45590000000000003        5.2656101366237513E-008   9.7002537571627599E-016   7.3162939736919914E-007
 abs          27          13  0.64330062879298922        7.7340845296274040E-004   3.5039713973051602E-004  0.64329999999999998        3.7106127483808847E-008   1.1909270512560439E-016   5.9168686163079536E-007
 CDOM          28           1   2.1615295866172239E-008   100.00000000000000        2.0137527074704766     
 CDOM          28           2   2.1615295866172239E-008   100.00000000000000        1.4190675485932573     
 CDOM          28           3   2.1615295866172239E-008   100.00000000000000        1.0000000000000000     
 CDOM          28           4   2.1615295866172239E-008   100.00000000000000       0.70468808971871344     
 CDOM          28           5   2.1615295866172239E-008   100.00000000000000       0.49658530379140947     
 CDOM          28           6   2.1615295866172239E-008   100.00000000000000       0.34993774911115533     
 CDOM          28           7   2.1615295866172239E-008   100.00000000000000       0.24659696394160643     
 CDOM          28           8   2.1615295866172239E-008   100.00000000000000       0.17377394345044514     
 CDOM          28           9   2.1615295866172239E-008   100.00000000000000       0.12245642825298191     
 CDOM          28          10   2.1615295866172239E-008   100.00000000000000        8.6293586499370495E-002
 CDOM          28          11   2.1615295866172239E-008   100.00000000000000        6.0810062625217952E-002
 CDOM          28          12   2.1615295866172239E-008   100.00000000000000        4.2852126867040187E-002
 CDOM          28          13   2.1615295866172239E-008   100.00000000000000        3.0197383422318501E-002
 abs          28           1   6.3104733185476965E-003   7.7020046741079866E-003   3.8005518427246983E-003   6.3000000000000000E-003   4.3527860573279752E-006   3.2132018175334952E-010   6.1202111701876847E-006
 abs          28           2   5.1080079360181375E-003   5.8960044032682233E-003   2.9005193813847487E-003   5.1000000000000004E-003   3.0673564916927009E-006   4.0907207721932626E-010   4.9401704543671823E-006
 abs          28           3   8.3060820991751206E-003   4.5850040101195894E-003   2.2504598692932734E-003   8.3000000000000001E-003   2.1615295866172239E-006   4.3432916806618145E-010   3.9201352593359028E-006
 abs          28           4   1.1904723680982353E-002   3.6870040861878960E-003   1.8004706896957356E-003   1.1900000000000001E-002   1.5232041552637718E-006   3.6641130459015724E-010   3.2001104157844104E-006
 abs          28           5   2.1503653738527806E-002   2.9830039764999023E-003   1.4504490490337316E-003   2.1499999999999998E-002   1.0733838264244340E-006   2.6567865836371777E-010   2.5800890227261807E-006
 abs          28           6   4.0702836641503752E-002   2.3786038511076817E-003   1.1504252442503748E-003   4.0700000000000000E-002   7.5640079817799742E-007   1.6893531901008132E-010   2.0800717702598664E-006
 abs          28           7   5.5002227197124637E-002   1.9750037764809302E-003   9.5040576768883663E-004   5.5000000000000000E-002   5.3302663352976306E-007   1.1203974786969295E-010   1.6940584513558722E-006
 abs          28           8   8.4901759733663817E-002   1.6722036869834692E-003   8.0039061915398091E-004   8.4900000000000003E-002   3.7561752015128551E-007   6.8388842671246559E-011   1.3840477548267575E-006
 abs          28           9  0.19950137879368304        1.4694035803008358E-003   7.0037547058429282E-004  0.19950000000000001        2.6469319274028970E-007   6.2051778801132838E-011   1.1140384384949478E-006
 abs          28          10  0.28500108462438511        1.2668034703342526E-003   6.0036140402495921E-004  0.28499999999999998        1.8652614035370197E-007   6.7259343226854294E-011   8.9803098542950021E-007
 abs          28          11  0.35120085953757330        9.6320332764657463E-004   4.5034192727752743E-004  0.35120000000000001        1.3144274952845487E-007   6.9704199695124617E-011   7.2802511959095331E-007
 abs          28          12  0.45590068884879420        7.6160325729728354E-004   3.5033327094007044E-004  0.45590000000000003        9.2626140072582217E-008   2.0208912654923515E-010   5.9602056493984631E-007
 abs          28          13  0.64330054731398012        7.5980315232704863E-004   3.5032353247129247E-004  0.64329999999999998        6.5272537705765923E-008   2.4811042436763241E-011   4.8201663137752680E-007
 CDOM          29           1   6.2458726656943364E-008   100.00000000000000        2.0137527074704766     
 CDOM          29           2   6.2458726656943364E-008   100.00000000000000        1.4190675485932573     
 CDOM          29           3   6.2458726656943364E-008   100.00000000000000        1.0000000000000000     
 CDOM          29           4   6.2458726656943364E-008   100.00000000000000       0.70468808971871344     
 CDOM          29           5   6.2458726656943364E-008   100.00000000000000       0.49658530379140947     
 CDOM          29           6   6.2458726656943364E-008   100.00000000000000       0.34993774911115533     
 CDOM          29           7   6.2458726656943364E-008   100.00000000000000       0.24659696394160643     
 CDOM          29           8   6.2458726656943364E-008   100.00000000000000       0.17377394345044514     
 CDOM          29           9   6.2458726656943364E-008   100.00000000000000       0.12245642825298191     
 CDOM          29          10   6.2458726656943364E-008   100.00000000000000        8.6293586499370495E-002
 CDOM          29          11   6.2458726656943364E-008   100.00000000000000        6.0810062625217952E-002
 CDOM          29          12   6.2458726656943364E-008   100.00000000000000        4.2852126867040187E-002
 CDOM          29          13   6.2458726656943364E-008   100.00000000000000        3.0197383422318501E-002
 abs          29           1   6.3170458047095640E-003   7.6744494071964743E-003   3.8004027591216722E-003   6.3000000000000000E-003   1.2577642991057813E-005   1.5263649671117600E-009   4.4666353535398365E-006
 abs          29           2   5.1124706797621928E-003   5.8700700498229581E-003   2.9003790673934470E-003   5.1000000000000004E-003   8.8633152125324958E-006   1.9432021944361189E-009   3.6054213474651616E-006
 abs          29           3   8.3091089179657008E-003   4.5620417190922998E-003   2.2503356342926210E-003   8.3000000000000001E-003   6.2458726656943367E-006   2.0631781293916430E-009   2.8609821218751892E-006
 abs          29           4   1.1906738628245947E-002   3.6635014373792973E-003   1.8003435313254741E-003   1.1900000000000001E-002   4.4013920774144709E-006   1.7405588362162861E-009   2.3354956096940321E-006
 abs          29           5   2.1504985863956765E-002   2.9605822024562868E-003   1.4503277379386958E-003   2.1499999999999998E-002   3.1016085751362825E-006   1.2620463146859963E-009   1.8829933353158134E-006
 abs          29           6   4.0703704541260863E-002   2.3573710215583749E-003   1.1503103649512984E-003   4.0700000000000000E-002   2.1856666218679678E-006   8.0249268957287627E-010   1.5180721463011209E-006
 abs          29           7   5.5002777098440009E-002   1.9547438245861699E-003   9.5029615106601679E-004   5.5000000000000000E-002   1.5402132365260916E-006   5.3221509774433620E-010   1.2363529883817784E-006
 abs          29           8   8.4902095796639834E-002   1.6527002997482549E-003   8.0028509535589730E-004   8.4900000000000003E-002   1.0853699234070487E-006   3.2486522872714795E-010   1.0101018511926690E-006
 abs          29           9  0.19950157818643210        1.4506566932712391E-003   7.0027403948029585E-004  0.19950000000000001        7.6484725796385941E-007   2.9476500121333754E-010   8.1304440912473485E-007
 abs          29          10  0.28500119469671026        1.2487590068817409E-003   6.0026377316596481E-004  0.28499999999999998        5.3897875314114804E-007   3.1950171867489589E-010   6.5539845547038780E-007
 abs          29          11  0.35120091146827298        9.4613148658885212E-004   4.5024955839759650E-004  0.35120000000000001        3.7981190795000959E-007   3.3111384945914914E-010   5.3132525120539227E-007
 abs          29          12  0.45590070359496992        7.4496366686341775E-004   3.5024324069775928E-004  0.45590000000000003        2.6764892786571221E-007   9.5998476122351979E-010   4.3498605730551345E-007
 abs          29          13  0.64330054051089602        7.4364974698301514E-004   3.5023613286200528E-004  0.64329999999999998        1.8860901169295043E-007   1.1785800287311438E-010   3.5178402621016358E-007
 CDOM          30           1   1.8696448442586313E-008   100.00000000000000        2.0137527074704766     
 CDOM          30           2   1.8696448442586313E-008   100.00000000000000        1.4190675485932573     
 CDOM          30           3   1.8696448442586313E-008   100.00000000000000        1.0000000000000000     
 CDOM          30           4   1.8696448442586313E-008   100.00000000000000       0.70468808971871344     
 CDOM          30           5   1.8696448442586313E-008   100.00000000000000       0.49658530379140947     
 CDOM          30           6   1.8696448442586313E-008   100.00000000000000       0.34993774911115533     
 CDOM          30           7   1.8696448442586313E-008   100.00000000000000       0.24659696394160643     
 CDOM          30           8   1.8696448442586313E-008   100.00000000000000       0.17377394345044514     
 CDOM          30           9   1.8696448442586313E-008   100.00000000000000       0.12245642825298191     
 CDOM          30          10   1.8696448442586313E-008   100.00000000000000        8.6293586499370495E-002
 CDOM          30          11   1.8696448442586313E-008   100.00000000000000        6.0810062625217952E-002
 CDOM          30          12   1.8696448442586313E-008   100.00000000000000        4.2852126867040187E-002
 CDOM          30          13   1.8696448442586313E-008   100.00000000000000        3.0197383422318501E-002
 abs          30           1   6.3057577660753390E-003   7.6332072530594366E-003   3.8001796478995074E-003   6.3000000000000000E-003   3.7650023671340364E-006   4.1881346724064885E-010   1.9923448947373269E-006
 abs          30           2   5.1042618854649346E-003   5.8312538905979433E-003   2.9001690803718743E-003   5.1000000000000004E-003   2.6531523258821183E-006   5.3317499981713350E-010   1.6081999640526787E-006
 abs          30           3   8.3031463534171904E-003   4.5276728608208312E-003   2.2501497070469773E-003   8.3000000000000001E-003   1.8696448442586312E-006   5.6609133534597057E-010   1.2761424815964577E-006
 abs          30           4   1.1902359743000834E-002   3.6283239631257533E-003   1.8001532294986185E-003   1.1900000000000001E-002   1.3175164537530563E-006   4.7758251242296766E-010   1.0417489645685368E-006
 abs          30           5   2.1501768694537137E-002   2.9270218138559489E-003   1.4501461847816442E-003   2.1499999999999998E-002   9.2843815296821487E-007   3.4628148519279152E-010   8.3991010268338291E-007
 abs          30           6   4.0701331616328898E-002   2.3255894435057897E-003   1.1501384355211636E-003   4.0700000000000000E-002   6.5425930843714197E-007   2.2019348925407151E-010   6.7713682696954897E-007
 abs          30           7   5.5001012670624447E-002   1.9244175405846978E-003   9.5013209532062457E-004   5.5000000000000000E-002   4.6104874224325606E-007   1.4602408027462012E-010   5.5147585811846923E-007
 abs          30           8   8.4900775541120840E-002   1.6235060195409689E-003   8.0012716392568474E-004   8.4900000000000003E-002   3.2489555743861572E-007   8.9136210821287220E-011   4.5055642717589220E-007
 abs          30           9  0.19950059168976861        1.4225944760908019E-003   7.0012223248531503E-004  0.19950000000000001        2.2895002972951461E-007   8.0880577472037479E-011   3.6265885829042190E-007
 abs          30          10  0.28500045376682931        1.2217480286653255E-003   6.0011765325111645E-004  0.28499999999999998        1.6133835909113428E-007   8.7667039906137092E-011   2.9234080318204568E-007
 abs          30          11  0.35120035078196060        9.2057603701488681E-004   4.5011131280822285E-004  0.35120000000000001        1.1369322006628323E-007   9.0851119036100315E-011   2.3699788943934213E-007
 abs          30          12  0.45590027440741215        7.2005514280565840E-004   3.5010849482674633E-004  0.45590000000000003        8.0118258062478460E-008   2.6340942595130692E-010   1.9402574465088997E-007
 abs          30          13  0.64330021340415633        7.1946910315328282E-004   3.5010532448139853E-004  0.64329999999999998        5.6458382225638848E-008   3.2336399860967319E-011   1.5691343778813586E-007
 CDOM          31           1   1.8690724514147341E-008   100.00000000000000        2.0137527074704766     
 CDOM          31           2   1.8690724514147341E-008   100.00000000000000        1.4190675485932573     
 CDOM          31           3   1.8690724514147341E-008   100.00000000000000        1.0000000000000000     
 CDOM          31           4   1.8690724514147341E-008   100.00000000000000       0.70468808971871344     
 CDOM          31           5   1.8690724514147341E-008   100.00000000000000       0.49658530379140947     
 CDOM          31           6   1.8690724514147341E-008   100.00000000000000       0.34993774911115533     
 CDOM          31           7   1.8690724514147341E-008   100.00000000000000       0.24659696394160643     
 CDOM          31           8   1.8690724514147341E-008   100.00000000000000       0.17377394345044514     
 CDOM          31           9   1.8690724514147341E-008   100.00000000000000       0.12245642825298191     
 CDOM          31          10   1.8690724514147341E-008   100.00000000000000        8.6293586499370495E-002
 CDOM          31          11   1.8690724514147341E-008   100.00000000000000        6.0810062625217952E-002
 CDOM          31          12   1.8690724514147341E-008   100.00000000000000        4.2852126867040187E-002
 CDOM          31          13   1.8690724514147341E-008   100.00000000000000        3.0197383422318501E-002
 abs          31           1   6.3057462998765430E-003   7.6330353621523600E-003   3.8001787179704856E-003   6.3000000000000000E-003   3.7638497094949019E-006   4.1870791470836679E-010   1.9820314591335120E-006
 abs          31           2   5.1042527481779546E-003   5.8310921109128479E-003   2.9001682051445366E-003   5.1000000000000004E-003   2.6523400617722971E-006   5.3304949547098812E-010   1.5998750666862008E-006
 abs          31           3   8.3031391749014659E-003   4.5275296183566720E-003   2.2501489321060052E-003   8.3000000000000001E-003   1.8690724514147342E-006   5.6595988580263277E-010   1.2695364901639490E-006
 abs          31           4   1.1902353946877916E-002   3.6281773502543501E-003   1.8001524363237516E-003   1.1900000000000001E-002   1.3171130953333219E-006   4.7746407807600230E-010   1.0363563185011829E-006
 abs          31           5   2.1501764062391650E-002   2.9268819417783230E-003   1.4501454280745061E-003   2.1499999999999998E-002   9.2815391109394014E-007   3.4619876617166094E-010   8.3556228179157872E-007
 abs          31           6   4.0701327910751192E-002   2.3254569862921379E-003   1.1501377189285012E-003   4.0700000000000000E-002   6.5405900657374133E-007   2.2013759530865719E-010   6.7363160702576884E-007
 abs          31           7   5.5001009674711082E-002   1.9242911500665478E-003   9.5013141154886357E-004   5.5000000000000000E-002   4.6090759190576914E-007   1.4599307338489364E-010   5.4862112610656374E-007
 abs          31           8   8.4900773109313585E-002   1.6233843475717163E-003   8.0012650568131471E-004   8.4900000000000003E-002   3.2479609047692889E-007   8.9115349041590598E-011   4.4822410775176159E-007
 abs          31           9  0.19950058974233936        1.4224775226800966E-003   7.0012159976836383E-004  0.19950000000000001        2.2887993654629340E-007   8.0859411685062073E-011   3.6078154337822426E-007
 abs          31          10  0.28500045220410192        1.2216354567820555E-003   6.0011704423822241E-004  0.28499999999999998        1.6128896525974783E-007   8.7644820581783264E-011   2.9082749187939445E-007
 abs          31          11  0.35120034952030488        9.2046953185957357E-004   4.5011073661632435E-004  0.35120000000000001        1.1365841282159963E-007   9.0829567498195955E-011   2.3577106245901908E-007
 abs          31          12  0.45590027337843525        7.1995133397346730E-004   3.5010793322195571E-004  0.45590000000000003        8.0093729811713988E-008   2.6334106097972276E-010   1.9302136432084530E-007
 abs          31          13  0.64330021257459769        7.1936832769498612E-004   3.5010477928713445E-004  0.64329999999999998        5.6441097459463497E-008   3.2329775197847914E-011   1.5610117047424066E-007
 CDOM          32           1   7.5858964868246967E-010   100.00000000000000        2.0137527074704766     
 CDOM          32           2   7.5858964868246967E-010   100.00000000000000        1.4190675485932573     
 CDOM          32           3   7.5858964868246967E-010   100.00000000000000        1.0000000000000000     
 CDOM          32           4   7.5858964868246967E-010   100.00000000000000       0.70468808971871344     
 CDOM          32           5   7.5858964868246967E-010   100.00000000000000       0.49658530379140947     
 CDOM          32           6   7.5858964868246967E-010   100.00000000000000       0.34993774911115533     
 CDOM          32           7   7.5858964868246967E-010   100.00000000000000       0.24659696394160643     
 CDOM          32           8   7.5858964868246967E-010   100.00000000000000       0.17377394345044514     
 CDOM          32           9   7.5858964868246967E-010   100.00000000000000       0.12245642825298191     
 CDOM          32          10   7.5858964868246967E-010   100.00000000000000        8.6293586499370495E-002
 CDOM          32          11   7.5858964868246967E-010   100.00000000000000        6.0810062625217952E-002
 CDOM          32          12   7.5858964868246967E-010   100.00000000000000        4.2852126867040187E-002
 CDOM          32          13   7.5858964868246967E-010   100.00000000000000        3.0197383422318501E-002
 abs          32           1   6.3006194983098686E-003   7.6077789514931307E-003   3.8000420841273570E-003   6.3000000000000000E-003   1.5276119588934012E-007   2.9673589820337117E-014   4.6673708430613345E-007
 abs          32           2   5.1004843943241174E-003   5.8073213661134025E-003   2.9000396085904598E-003   5.1000000000000004E-003   1.0764899531440526E-007   3.5261576807955428E-014   3.7674529354122531E-007
 abs          32           3   8.3003748147812851E-003   4.5064824595893111E-003   2.2500350701061644E-003   8.3000000000000001E-003   7.5858964868246973E-008   3.6927365131266393E-014   2.9895577949020313E-007
 abs          32           4   1.1900297502476611E-002   3.6066349880492080E-003   1.8000358952851305E-003   1.1900000000000001E-002   5.3456909041043955E-008   3.3290439910222011E-014   2.4404553427771687E-007
 abs          32           5   2.1500234432182370E-002   2.9063299311352531E-003   1.4500342449272161E-003   2.1499999999999998E-002   3.7670447114400282E-008   2.3243714149261831E-014   1.9676171201140920E-007
 abs          32           6   4.0700185175528411E-002   2.3059943685325088E-003   1.1500324295335182E-003   4.0700000000000000E-002   2.6545915415896556E-008   1.5714200982374898E-014   1.5862959728051596E-007
 abs          32           7   5.5000147898203830E-002   1.9057198173152881E-003   9.5003094421141070E-004   5.5000000000000000E-002   1.8706590424262688E-008   8.7031368525670767E-015   1.2919160470826635E-007
 abs          32           8   8.4900118732010893E-002   1.6055062774774421E-003   8.0002978896087629E-004   8.4900000000000003E-002   1.3182311471224054E-008   5.8610008091031995E-015   1.0554969357511254E-007
 abs          32           9  0.19950009424777548        1.4052927376368737E-003   7.0002863371033388E-004  0.19950000000000001        9.2894178887339611E-009   5.9521085651628381E-015   8.4958351620430168E-008
 abs          32          10  0.28500007503142644        1.2050944506395785E-003   6.0002756097768037E-004  0.28499999999999998        6.5461421466107773E-009   6.2467311818395252E-015   6.8485278056684289E-008
 abs          32          11  0.35120006013335348        9.0481989941320977E-004   4.5002607565554646E-004  0.35120000000000001        4.6129884043223067E-009   6.0555194680418772E-015   5.5520359048180580E-008
 abs          32          12  0.45590004870421796        7.0469787664605762E-004   3.5002541551237620E-004  0.45590000000000003        3.2507179865364637E-009   1.9223871790069954E-014   4.5453480759224758E-008
 abs          32          13  0.64330003905010269        7.0456060103008835E-004   3.5002467285130115E-004  0.64329999999999998        2.2907422481466429E-009   1.8587579023494087E-015   3.6759358600581095E-008
 CDOM          33           1   2.7890118502290008E-010   100.00000000000000        2.0137527074704766     
 CDOM          33           2   2.7890118502290008E-010   100.00000000000000        1.4190675485932573     
 CDOM          33           3   2.7890118502290008E-010   100.00000000000000        1.0000000000000000     
 CDOM          33           4   2.7890118502290008E-010   100.00000000000000       0.70468808971871344     
 CDOM          33           5   2.7890118502290008E-010   100.00000000000000       0.49658530379140947     
 CDOM          33           6   2.7890118502290008E-010   100.00000000000000       0.34993774911115533     
 CDOM          33           7   2.7890118502290008E-010   100.00000000000000       0.24659696394160643     
 CDOM          33           8   2.7890118502290008E-010   100.00000000000000       0.17377394345044514     
 CDOM          33           9   2.7890118502290008E-010   100.00000000000000       0.12245642825298191     
 CDOM          33          10   2.7890118502290008E-010   100.00000000000000        8.6293586499370495E-002
 CDOM          33          11   2.7890118502290008E-010   100.00000000000000        6.0810062625217952E-002
 CDOM          33          12   2.7890118502290008E-010   100.00000000000000        4.2852126867040187E-002
 CDOM          33          13   2.7890118502290008E-010   100.00000000000000        3.0197383422318501E-002
 abs          33           1   6.3002272146718361E-003   7.6028508478364898E-003   3.8000154230867955E-003   6.3000000000000000E-003   5.6163801645658936E-008   7.8860621271962714E-019   1.7105087018924041E-007
 abs          33           2   5.1001776484357443E-003   5.8026831509049312E-003   2.9000145158463954E-003   5.1000000000000004E-003   3.9577962093020132E-008   9.3648079287598587E-019   1.3807047364948489E-007
 abs          33           3   8.3001374521137899E-003   4.5023757065304083E-003   2.2500128525723292E-003   8.3000000000000001E-003   2.7890118502290006E-008   9.8058337489931319E-019   1.0956199528461151E-007
 abs          33           4   1.1900109092197830E-002   3.6024316055075943E-003   1.8000131549857959E-003   1.1900000000000001E-002   1.9653834329407290E-008   8.8459026434473572E-019   8.9438363497642050E-008
 abs          33           5   2.1500085959503538E-002   2.9023198075532226E-003   1.4500125501588628E-003   2.1499999999999998E-002   1.3849822969238092E-008   6.1740125650173154E-019   7.2109680569973902E-008
 abs          33           6   4.0700067894741565E-002   2.3021968298034133E-003   1.1500118848492365E-003   4.0700000000000000E-002   9.7598052911347515E-009   4.1764950968996744E-019   5.8134936273467330E-008
 abs          33           7   5.5000054224052221E-002   1.9020962116444789E-003   9.5001134050499666E-004   5.5000000000000000E-002   6.8776185466363391E-009   2.3088197629164339E-019   4.7346433676564266E-008
 abs          33           8   8.4900043528668090E-002   1.6020179530764186E-003   8.0001091712614345E-004   8.4900000000000003E-002   4.8465758754431574E-009   1.5564793556428008E-019   3.8682092212730185E-008
 abs          33           9  0.19950003455105461        1.4019396945083582E-003   7.0001049374729017E-004  0.19950000000000001        3.4153242953428394E-009   1.5823910057966383E-019   3.1135730292616639E-008
 abs          33          10  0.28500002750537912        1.2018670258380163E-003   6.0001010060978363E-004  0.28499999999999998        2.4067383534550563E-009   1.6602220698497633E-019   2.5098640756525802E-008
 abs          33          11  0.35120002204322753        9.0176640767908138E-004   4.5000955626554379E-004  0.35120000000000001        1.6959998527490052E-009   1.6083581740631105E-019   2.0347227695713565E-008
 abs          33          12  0.45590001785304612        7.0172168849733248E-004   3.5000931433477054E-004  0.45590000000000003        1.1951508963969163E-009   5.1103514400228420E-019   1.6657895201435829E-008
 abs          33          13  0.64330001431386208        7.0167137941786514E-004   3.5000904216265062E-004  0.64329999999999998        8.4220860210755073E-010   4.9289764841006552E-020   1.3471653501832333E-008
 CDOM          34           1   1.1884824784993414E-010   100.00000000000000        2.0137527074704766     
 CDOM          34           2   1.1884824784993414E-010   100.00000000000000        1.4190675485932573     
 CDOM          34           3   1.1884824784993414E-010   100.00000000000000        1.0000000000000000     
 CDOM          34           4   1.1884824784993414E-010   100.00000000000000       0.70468808971871344     
 CDOM          34           5   1.1884824784993414E-010   100.00000000000000       0.49658530379140947     
 CDOM          34           6   1.1884824784993414E-010   100.00000000000000       0.34993774911115533     
 CDOM          34           7   1.1884824784993414E-010   100.00000000000000       0.24659696394160643     
 CDOM          34           8   1.1884824784993414E-010   100.00000000000000       0.17377394345044514     
 CDOM          34           9   1.1884824784993414E-010   100.00000000000000       0.12245642825298191     
 CDOM          34          10   1.1884824784993414E-010   100.00000000000000        8.6293586499370495E-002
 CDOM          34          11   1.1884824784993414E-010   100.00000000000000        6.0810062625217952E-002
 CDOM          34          12   1.1884824784993414E-010   100.00000000000000        4.2852126867040187E-002
 CDOM          34          13   1.1884824784993414E-010   100.00000000000000        3.0197383422318501E-002
 abs          34           1   6.3000967254829600E-003   7.6012132064145208E-003   3.8000065634467024E-003   6.3000000000000000E-003   2.3933098088592713E-008   4.0633901406311714E-025   7.2792384871270607E-008
 abs          34           2   5.1000756226210146E-003   5.8011418413313138E-003   2.9000061773616021E-003   5.1000000000000004E-003   1.6865369173100991E-008   4.8253049397397453E-025   5.8757251840535416E-008
 abs          34           3   8.3000585100124809E-003   4.5010110053454342E-003   2.2500054695389188E-003   8.3000000000000001E-003   1.1884824784993414E-008   5.0525417176724335E-025   4.6625187695323654E-008
 abs          34           4   1.1900046436472186E-002   3.6010347937065032E-003   1.8000055982339521E-003   1.1900000000000001E-002   8.3750944743786274E-009   4.5579538338354088E-025   3.8061377710468290E-008
 abs          34           5   2.1500036588815104E-002   2.9009872169843652E-003   1.4500053408438853E-003   2.1499999999999998E-002   5.9018293263636274E-009   3.1812217172090677E-025   3.0686985779065059E-008
 abs          34           6   4.0700028898844345E-002   2.3009348825900134E-003   1.1500050577148120E-003   4.0700000000000000E-002   4.1589488338410661E-009   2.1519914932590263E-025   2.4739895511804387E-008
 abs          34           7   5.5000023079503538E-002   1.9008920635400892E-003   9.5000482606375186E-004   5.5000000000000000E-002   2.9307617089573313E-009   1.1896299720118211E-025   2.0148741825479152E-008
 abs          34           8   8.4900018526818735E-002   1.6008587598345925E-003   8.0000464589070517E-004   8.4900000000000003E-002   2.0652728701058944E-009   8.0199016354227945E-026   1.6461545859777537E-008
 abs          34           9  0.19950001470549031        1.4008254561290957E-003   7.0000446571765840E-004  0.19950000000000001        1.4553731935828071E-009   8.1534874264844958E-026   1.3250117115456772E-008
 abs          34          10  0.28500001170655825        1.2007945312597060E-003   6.0000429841411494E-004  0.28499999999999998        1.0255841556136916E-009   8.5545014578772375E-026   1.0680974120000163E-008
 abs          34          11  0.35120000938168039        9.0075171220978169E-004   4.5000406676305493E-004  0.35120000000000001        7.2271693946519194E-010   8.2872214710766453E-026   8.6589634291315342E-009
 abs          34          12  0.45590000759822163        7.0073268152092652E-004   3.5000396380702821E-004  0.45590000000000003        5.0929001947908135E-010   2.6331772410882539E-025   7.0889315985747177E-009
 abs          34          13  0.64330000609188553        7.0071127199596440E-004   3.5000384798149816E-004  0.64329999999999998        3.5889061093952018E-010   2.5396689484909664E-026   5.7329950176392858E-009
 CDOM          35           1   5.8680998021832262E-011   100.00000000000000        2.0137527074704766     
 CDOM          35           2   5.8680998021832262E-011   100.00000000000000        1.4190675485932573     
 CDOM          35           3   5.8680998021832262E-011   100.00000000000000        1.0000000000000000     
 CDOM          35           4   5.8680998021832262E-011   100.00000000000000       0.70468808971871344     
 CDOM          35           5   5.8680998021832262E-011   100.00000000000000       0.49658530379140947     
 CDOM          35           6   5.8680998021832262E-011   100.00000000000000       0.34993774911115533     
 CDOM          35           7   5.8680998021832262E-011   100.00000000000000       0.24659696394160643     
 CDOM          35           8   5.8680998021832262E-011   100.00000000000000       0.17377394345044514     
 CDOM          35           9   5.8680998021832262E-011   100.00000000000000       0.12245642825298191     
 CDOM          35          10   5.8680998021832262E-011   100.00000000000000        8.6293586499370495E-002
 CDOM          35          11   5.8680998021832262E-011   100.00000000000000        6.0810062625217952E-002
 CDOM          35          12   5.8680998021832262E-011   100.00000000000000        4.2852126867040187E-002
 CDOM          35          13   5.8680998021832262E-011   100.00000000000000        3.0197383422318501E-002
 abs          35           1   6.3000477985292180E-003   7.6005996937892270E-003   3.8000032443433998E-003   6.3000000000000000E-003   1.1816901864353440E-008   1.2840672567036752E-031   3.5981627353622982E-008
 abs          35           2   5.1000373712233229E-003   5.8005644176839779E-003   2.9000030534996699E-003   5.1000000000000004E-003   8.3272300011847290E-009   1.5248361684768904E-031   2.9043993321388480E-008
 abs          35           3   8.3000289151552321E-003   4.5004997448243557E-003   2.2500027036194995E-003   8.3000000000000001E-003   5.8680998021832262E-009   1.5966442308946827E-031   2.3047055429117987E-008
 abs          35           4   1.1900022949102841E-002   3.6005115035261052E-003   1.8000027672340762E-003   1.1900000000000001E-002   4.1351800398792581E-009   1.4403531290408211E-031   1.8813922799279990E-008
 abs          35           5   2.1500018082737379E-002   2.9004879861226061E-003   1.4500026400049231E-003   2.1499999999999998E-002   2.9140121229454672E-009   1.0052927315815114E-031   1.5168725256919493E-008
 abs          35           6   4.0700014282519459E-002   2.3004621169787575E-003   1.1500025000528550E-003   4.0700000000000000E-002   2.0534696363356139E-009   6.8004849388333490E-032   1.2229049819531993E-008
 abs          35           7   5.5000011406675972E-002   1.9004409513156081E-003   9.5000238554661745E-004   5.5000000000000000E-002   1.4470555953247249E-009   3.7593170165761771E-032   9.9596203818688455E-009
 abs          35           8   8.4900009156744463E-002   1.6004244891331589E-003   8.0000229648621044E-004   8.4900000000000003E-002   1.0197228431861563E-009   2.5343546567686086E-032   8.1370216106885952E-009
 abs          35           9  0.19950000726818343        1.4004080269507094E-003   7.0000220742580334E-004  0.19950000000000001        7.1858654240738757E-010   2.5765767718141513E-032   6.5495968744993465E-009
 abs          35          10  0.28500000578603646        1.2003927406384349E-003   6.0000212472685393E-004  0.28499999999999998        5.0637937786663709E-010   2.7032986011705922E-032   5.2796570855479477E-009
 abs          35          11  0.35120000463700696        9.0037157497528577E-004   4.5000201022061631E-004  0.35120000000000001        3.5683951646179104E-010   2.6188309362203869E-032   4.2801674368361970E-009
 abs          35          12  0.45590000375555373        7.0036216801388617E-004   3.5000195932895510E-004  0.45590000000000003        2.5146055719160906E-010   8.3210796812736149E-032   3.5040931213658976E-009
 abs          35          13  0.64330000301104839        7.0035158518231156E-004   3.5000190207583630E-004  0.64329999999999998        1.7720125968695822E-010   8.0255286831896262E-033   2.8338471216415483E-009
 ed   5.1506203949451450        6.6283149639765426        8.0778097848097481        8.5123907347520191        8.5209681411584217        8.3567232926686614        8.4534089187781021        8.3230028092861179        7.8937452296415973        7.8298133989175156        7.3998654981454210        6.7475371559460964        3.3254480908314390     
 es   3.8708240101734797        4.4514794925848644        5.0450981140136717        4.9428132792313892        4.6598944703737892        4.3338216374317806        4.2095542867978413        4.0404048144817351        3.7294194191694259        3.6340814918279651        3.4198225726683935        3.0610342999299367        1.5060487175981203     
 PAR   7.3179228112101383E-002  0.59444197719851377        2.6395302284051514        6.9090442304949908        12.726166758716982        17.968909703089977        23.657424116721803        25.203109336052080        14.492805859915878        9.9376108241625776        7.0814179221828413        3.7499287064091091       0.64445829895703111     
 chl2c           1   3.7477407714772232E-002   3.7477407714772232E-002  0.60826437499999997        6.3360731318374270E-005   1.4250945319629922E-016
 chl           1   3.1123644303601614E-005   8.3046417032023822E-004   3.7477407714772232E-002
 chl2c           2   8.3992448696387376E-002   3.2640259920490348E-002  0.48302390000000001        3.5211527886137572E-005   1.7900147504025310E-006
 chl           2   7.1296553906925741E-005   8.4884480704504447E-004   8.3992448696387376E-002
 chl2c           3   3.7922212503796585E-002   3.7922212503796585E-002  0.75128689999999998        6.3360731318374270E-005   1.5367111490141934E-016
 chl           3   3.1493038743677013E-005   8.3046417032033894E-004   3.7922212503796585E-002
 chl2c           4   6.4680584435150054E-002   3.7976509103863923E-002  0.77318742499999993        6.3360731318374270E-005   2.2361701993501730E-006
 chl           4   5.4810853976241981E-005   8.4740814349314284E-004   6.4680584435150054E-002
 chl2c           5   5.9070760685165632E-002   2.5710500362372445E-002  0.48489679999999996        8.3860026079695912E-005   2.8204257040958636E-006
 chl           5   5.0624447442955871E-005   8.5701363679356048E-004   5.9070760685165632E-002
 chl2c           6   3.1261039902252048E-002   3.1261039902252048E-002  0.29222855000000003        3.5211527886137572E-005   1.0242948751930620E-016
 chl           6   2.6124675763189790E-005   8.3569439292093949E-004   3.1261039902252048E-002
 chl2c           7   8.7201860531630856E-002   4.3064391842467263E-002  0.22770740000000000        1.8578649394756018E-005   1.3127849590018212E-006
 chl           7   7.3606455767090016E-005   8.4409272139773480E-004   8.7201860531630856E-002
 chl2c           8   4.7969800906495587E-002   4.7969800906495587E-002  0.49578364999999996        1.8578649394756018E-005   7.3707982760879370E-017
 chl           8   4.0088093647079694E-005   8.3569439292067961E-004   4.7969800906495587E-002
 chl2c           9   2.4803669054600401E-002   2.4803669054600401E-002  0.28700202499999999        8.3860026079695912E-005   1.3659519738205291E-016
 chl           9   2.0728291152235729E-005   8.3569455416480812E-004   2.4803669054600401E-002
 chl2c          10   6.7566314642586250E-002   2.5387016219684602E-002  0.39094662499999999        8.3860026079695912E-005   3.4249885464848192E-006
 chl          10   5.8177105337880971E-005   8.6103712546151850E-004   6.7566314642586250E-002
 chl2c          11   2.1820572217820047E-002   2.1820572217820047E-002  0.49737575000000001        6.3360731318374270E-005   1.4150531798998689E-016
 chl          11   1.8235329852766395E-005   8.3569439292129478E-004   2.1820572217820047E-002
 chl2c          12   4.5290941298723353E-002   4.5290941298723353E-002  0.30768942500000002        1.8578649394756018E-005   7.3081305109847866E-017
 chl          12   3.7849385693442492E-005   8.3569439292067397E-004   4.5290941298723353E-002
 chl2c          13   3.7935816987997487E-002   3.7935816987997487E-002  0.75666275000000005        6.3360731318374270E-005   1.2781830255515095E-016
 chl          13   3.1504336773024929E-005   8.3046417012694318E-004   3.7935816987997487E-002
 chl2c          14   4.6856526101924839E-002   4.6856526101924839E-002  0.39804095000000000        1.8578649394756018E-005   8.1153869255260951E-017
 chl          14   3.9157736135123220E-005   8.3569439292074715E-004   4.6856526101924839E-002
 chl2c          15   8.3529742767572274E-002   2.0954299823745293E-002  0.25607262500000000        6.3360731318374270E-005   3.9273303580020480E-006
 chl          15   7.2025249435335928E-005   8.6227069602921608E-004   8.3529742767572274E-002
 chl2c          16   3.7823443882273475E-002   3.7823443882273475E-002  0.71433214999999994        6.3360731318374270E-005   1.5996895182113370E-016
 chl          16   3.1411014942352295E-005   8.3046417032039586E-004   3.7823443882273475E-002
 chl2c          17   3.7542254757581245E-002   3.7542254757581245E-002  0.62580860000000005        6.3360731318374270E-005   1.5988898603994064E-016
 chl          17   3.1177497449211614E-005   8.3046417032039510E-004   3.7542254757581245E-002
 chl2c          18   2.5694475239060960E-002   2.5694475239060960E-002  0.47925950000000000        8.3860026079695912E-005   1.4771190517049073E-016
 chl          18   2.1472728886339737E-005   8.3569439292135116E-004   2.5694475239060960E-002
 chl2c          19   3.7570220750293731E-002   3.7570220750293731E-002  0.63367130000000005        6.3360731318374270E-005   7.9967856301341732E-007
 chl          19   3.1455343886676015E-005   8.3724139114700537E-004   3.7570220750293731E-002
 chl2c          20   3.7020645196759419E-002   3.7020645196759419E-002  0.50678202500000002        6.3360731318374270E-005   1.4073112243334743E-016
 chl          20   3.0744319390895122E-005   8.3046417012705952E-004   3.7020645196759419E-002
 chl2c          21   3.7838475073783531E-002   3.7838475073783531E-002  0.71973185000000006        6.3360731318374270E-005   2.5961857718938102E-008
 chl          21   3.1429939052416298E-005   8.3063440033270797E-004   3.7838475073783531E-002
 chl2c          22   9.4190429679857593E-002   3.7613353106285476E-002  0.64616892500000001        6.3360731318374270E-005   3.4931792676418012E-006
 chl          22   8.0672670554934159E-005   8.5648479181092241E-004   9.4190429679857593E-002
 chl2c          23   3.2286562315070731E-002   3.2286562315070731E-002  0.41564179999999995        3.5211527886137572E-005   9.6612732970793946E-017
 chl          23   2.6981699093395415E-005   8.3569439292088680E-004   3.2286562315070731E-002
 chl2c          24   3.7348402796863071E-002   3.7348402796863071E-002  0.57597492500000003        6.3360731318374270E-005   1.1427124205702921E-016
 chl          24   3.1016510334259134E-005   8.3046417012682110E-004   3.7348402796863071E-002
 chl2c          25   4.5426679235459781E-002   4.5426679235459781E-002  0.31406487500000002        1.8578649394756018E-005   7.6792090031903352E-017
 chl          25   3.7962821126081274E-005   8.3569439292070758E-004   4.5426679235459781E-002
 chl2c          26   4.7955660680174553E-002   4.7955660680174553E-002  0.49427735000000000        1.8578649394756018E-005   7.0601002516242654E-017
 chl          26   4.0076276739227224E-005   8.3569439292065142E-004   4.7955660680174553E-002
 chl2c          27   4.5333133499525620E-002   4.5333133499525620E-002  0.30964730000000001        1.8578649394756018E-005   8.0538164783418431E-017
 chl          27   3.7884645479080998E-005   8.3569439292074162E-004   4.5333133499525620E-002
 chl2c          28   3.1209236063453518E-002   3.1209236063453518E-002  0.28776342500000002        3.5211527886137572E-005   8.0099130443995637E-017
 chl          28   2.6081383585567779E-005   8.3569439292073761E-004   3.1209236063453518E-002
 chl2c          29   9.2754989723241879E-002   3.7743217595736761E-002  0.68676297499999994        6.3360731318374270E-005   3.3973638185565135E-006
 chl          29   7.9391801013666325E-005   8.5593024429792908E-004   9.2754989723241879E-002
 chl2c          30   2.5380056985171612E-002   2.5380056985171612E-002  0.38930277499999999        8.3860026079695912E-005   1.6193065023105766E-016
 chl          30   2.1209971314535554E-005   8.3569439292147986E-004   2.5380056985171612E-002
 chl2c          31   9.6909989711735534E-002   3.7576959810037038E-002  0.63559385000000002        6.3360731318374270E-005   3.6224671495218796E-006
 chl          31   8.3093496987491741E-005   8.5742963377313558E-004   9.6909989711735534E-002
 chl2c          32   7.4419175066328280E-002   2.0893126428578448E-002  0.24722667500000001        6.3360731318374270E-005   3.3729334939490964E-006
 chl          32   6.3911433254194909E-005   8.5880330166562531E-004   7.4419175066328280E-002
 chl2c          33   3.7458922634011876E-002   3.7458922634011876E-002  0.60343137499999999        6.3360731318374270E-005   1.1133092247114202E-006
 chl          33   3.1437811601913290E-005   8.3926096618081730E-004   3.7458922634011876E-002
 chl2c          34   5.5720556830873860E-002   2.5350269098008315E-002  0.38241020000000003        8.3860026079695912E-005   2.7348565181727798E-006
 chl          34   4.7705317122457158E-005   8.5615291439486137E-004   5.5720556830873860E-002
 chl2c          35   2.5740370148566064E-002   2.5740370148566064E-002  0.49574644999999995        8.3860026079695912E-005   1.1692113247137158E-016
 chl          35   2.1511083004869608E-005   8.3569439292107230E-004   2.5740370148566064E-002
 chl2c          36   3.7770393924465726E-002   3.7770393924465726E-002  0.69587337500000002        6.3360731318374270E-005   1.2176307102951036E-016
 chl          36   3.1366958853142926E-005   8.3046417032005097E-004   3.7770393924465726E-002
 chl2c          37   2.1353674699533250E-002   2.1353674699533250E-002  0.33194060000000003        6.3360731318374270E-005   1.0705247341153518E-016
 chl          37   1.7845146214658592E-005   8.3569439292098297E-004   2.1353674699533250E-002
 chl2c          38   2.1543295686358745E-002   2.1543295686358745E-002  0.38455722500000000        6.3360731318374270E-005   1.6529066461408049E-016
 chl          38   1.8003611410140165E-005   8.3569439292151043E-004   2.1543295686358745E-002
 chl2c          39   2.5670077108751441E-002   2.5670077108751441E-002  0.47091117500000002        8.3860026079695912E-005   1.3305062417727226E-016
 chl          39   2.1452339505638904E-005   8.3569439292121856E-004   2.5670077108751441E-002
 chl2c          40   3.7687445774703773E-002   3.7687445774703773E-002  0.66875547499999999        6.3360731318374270E-005   1.6027770095066812E-016
 chl          40   3.1298073386784379E-005   8.3046417032039857E-004   3.7687445774703773E-002
 chl2c          41   2.5582381488167241E-002   2.5582381488167241E-002  0.44304987499999998        8.3860026079695912E-005   9.6396966384446294E-017
 chl          41   2.1379052767224448E-005   8.3569439292088647E-004   2.5582381488167241E-002
 chl2c          42   3.7949995630725070E-002   3.7949995630725070E-002  0.76234377499999995        6.3360731318374270E-005   1.3520129220587094E-016
 chl          42   3.1516111627793734E-005   8.3046417012700964E-004   3.7949995630725070E-002
 chl2c          43   2.1185090152268007E-002   2.1185090152268007E-002  0.29539925000000000        6.3360731318374270E-005   1.6458245864549746E-016
 chl          43   1.7704261053786947E-005   8.3569439292150414E-004   2.1185090152268007E-002
 chl2c          44   3.7536352708156646E-002   3.7536352708156646E-002  0.62417262500000004        6.3360731318374270E-005   1.1550616561608560E-016
 chl          44   3.1172596001367385E-005   8.3046417012683238E-004   3.7536352708156646E-002
 chl2c          45  0.13138986684662091        4.6544927192009838E-002  0.37662252499999999        1.8578649394756018E-005   1.8744506070988772E-006
 chl          45   1.1143554329791784E-004   8.4812890044255144E-004  0.13138986684662091     
 chl2c          46   9.4102738099508559E-002   3.7083195475449568E-002  0.51876034999999998        6.3360731318374270E-005   3.6418353516962454E-006
 chl          46   8.0664799276121836E-005   8.5719927926882606E-004   9.4102738099508559E-002
 chl2c          47   3.7519784612651236E-002   3.7519784612651236E-002  0.61962282499999999        6.3360731318374270E-005   1.4750181686508993E-016
 chl          47   3.1158836791693726E-005   8.3046417012712088E-004   3.7519784612651236E-002
 chl2c          48   3.7823212136301673E-002   3.7823212136301673E-002  0.71424949999999998        6.3360731318374270E-005   1.4185632745917026E-016
 chl          48   3.1410822478313882E-005   8.3046417012706971E-004   3.7823212136301673E-002
 chl2c          49   3.7152990741888416E-002   3.7152990741888416E-002  0.53276120000000005        6.3360731318374270E-005   1.3201681972489896E-016
 chl          49   3.0854227624197777E-005   8.3046417012698113E-004   3.7152990741888416E-002
 chl2c          50   3.9377995768785500E-002   2.1533072915600981E-002  0.38132569999999999        6.3360731318374270E-005   1.3911699159080201E-006
 chl          50   3.3318316165657120E-005   8.4611508318735158E-004   3.9377995768785500E-002
 chl2c          51   2.0700971146093840E-002   2.0700971146093840E-002  0.22275920000000002        6.3360731318374270E-005   1.7567551230975182E-016
 chl          51   1.7299685514822541E-005   8.3569439292160443E-004   2.0700971146093840E-002
 chl2c          52   3.7581825176985564E-002   3.7581825176985564E-002  0.63698869999999996        6.3360731318374270E-005   1.5697664574085786E-016
 chl          52   3.1210359264730467E-005   8.3046417032036886E-004   3.7581825176985564E-002
 chl2c          53   3.7925801262726190E-002   3.7925801262726190E-002  0.75269794999999995        6.3360731318374270E-005   1.4058009349526771E-016
 chl          53   3.1496019079379486E-005   8.3046417032022076E-004   3.7925801262726190E-002
 chl2c          54   3.7082433371327092E-002   3.7082433371327092E-002  0.51861124999999997        6.3360731318374270E-005   1.1532063279886987E-016
 chl          54   3.0795632256002638E-005   8.3046417012683053E-004   3.7082433371327092E-002
 chl2c          55   9.4367420196172974E-002   3.7357235588660491E-002  0.57808280000000001        6.3360731318374270E-005   3.5728305551787869E-006
 chl          55   8.0861732713246207E-005   8.5688188301798586E-004   9.4367420196172974E-002
 chl2c          56   3.7507394187257688E-002   3.7507394187257688E-002  0.61626080000000005        6.3360731318374270E-005   1.5739142347454217E-016
 chl          56   3.1148546994600121E-005   8.3046417032037255E-004   3.7507394187257688E-002
 chl2c          57  0.10161483386800972        3.7727617852646313E-002  0.68163462500000005        6.3360731318374270E-005   3.7831723568698903E-006
 chl          57   8.7256355675647442E-005   8.5869702635136028E-004  0.10161483386800972     
 chl2c          58   3.7765358178394853E-002   3.7765358178394853E-002  0.69416802499999997        6.3360731318374270E-005   5.1958233239768116E-007
 chl          58   3.1534329587857210E-005   8.3500676569506628E-004   3.7765358178394853E-002
 chl2c          59   3.7173699120809672E-002   3.7173699120809672E-002  0.53705127500000005        6.3360731318374270E-005   1.6010209078945218E-016
 chl          59   3.0871425190922716E-005   8.3046417012723462E-004   3.7173699120809672E-002
 chl2c          60   3.7607757740906807E-002   3.7607757740906807E-002  0.64452155000000000        6.3360731318374270E-005   1.2513840682961883E-007
 chl          60   3.1271965319749922E-005   8.3152964170833026E-004   3.7607757740906807E-002
 chl2c          61   3.7805373434125003E-002   3.7805373434125003E-002  0.70794139999999994        6.3360731318374270E-005   1.3758568933948969E-016
 chl          61   3.1396008075313126E-005   8.3046417012703111E-004   3.7805373434125003E-002
 chl2c          62   3.7956103087269030E-002   3.7956103087269030E-002  0.76481592499999995        6.3360731318374270E-005   1.1229081154677605E-016
 chl          62   3.1521183651616266E-005   8.3046417012680310E-004   3.7956103087269030E-002
 chl2c          63   4.6732142753127440E-002   3.7855601011927406E-002  0.72597904999999996        6.3360731318374270E-005   1.5823490798265846E-006
 chl          63   3.9372659453071958E-005   8.4251774332425695E-004   4.6732142753127440E-002
 chl2c          64   2.5708982294816416E-002   2.5708982294816416E-002  0.48435739999999999        8.3860026079695912E-005   9.3789295949786023E-017
 chl          64   2.1484852351479812E-005   8.3569439292086273E-004   2.5708982294816416E-002
 chl2c          65   3.7953597170552002E-002   3.7953597170552002E-002  0.76379975000000000        6.3360731318374270E-005   1.2407030794691712E-016
 chl          65   3.1519102584904690E-005   8.3046417032007179E-004   3.7953597170552002E-002
 chl2c          66   3.1840477731474713E-002   3.1840477731474713E-002  0.35213202499999996        3.5211527886137572E-005   7.6399506663881541E-017
 chl          66   2.6608908708109956E-005   8.3569439292070400E-004   3.1840477731474713E-002
 chl2c          67   3.7937587124568600E-002   3.7937587124568600E-002  0.75736760000000003        6.3360731318374270E-005   1.3126620412098058E-016
 chl          67   3.1505806808024650E-005   8.3046417012697430E-004   3.7937587124568600E-002
 chl2c          68   3.7855407263856986E-002   3.7855407263856986E-002  0.72590779999999999        6.3360731318374270E-005   2.3947456634129451E-007
 chl          68   3.1515798286436533E-005   8.3253095302257411E-004   3.7855407263856986E-002
 chl2c          69   7.4762194896746487E-002   2.1732330561541505E-002  0.45524217500000003        6.3360731318374270E-005   2.8338894738613532E-006
 chl          69   6.4049323523619932E-005   8.5670737211605385E-004   7.4762194896746487E-002
 chl2c          70   3.2658010878182209E-002   3.2658010878182209E-002  0.48694062500000002        3.5211527886137572E-005   9.6242757414696263E-017
 chl          70   2.7292116574846092E-005   8.3569439292088355E-004   3.2658010878182209E-002
 chl2c          71   4.3481058864416305E-002   4.3481058864416305E-002  0.23986107500000001        1.8578649394756018E-005   8.4061023981475423E-017
 chl          71   3.6336877091250790E-005   8.3569439292077328E-004   4.3481058864416305E-002
 chl2c          72   3.7549776402781669E-002   3.7549776402781669E-002  0.62790522500000001        6.3360731318374270E-005   1.5788791704685980E-016
 chl          72   3.1183743906051752E-005   8.3046417032037699E-004   3.7549776402781669E-002
 chl2c          73   3.1852614277819484E-002   3.1852614277819484E-002  0.35362212500000001        3.5211527886137572E-005   9.2667356453616850E-017
 chl          73   2.6619051151844388E-005   8.3569439292085113E-004   3.1852614277819484E-002
 chl2c          74   3.7616827685877569E-002   3.7616827685877569E-002  0.64719590000000005        6.3360731318374270E-005   1.1904056926307370E-007
 chl          74   3.1277024610876168E-005   8.3146364366654070E-004   3.7616827685877569E-002
 chl2c          75   3.7826830779512356E-002   3.7826830779512356E-002  0.71554212500000003        6.3360731318374270E-005   1.2449172125305490E-016
 chl          75   3.1413827639145625E-005   8.3046417032007558E-004   3.7826830779512356E-002
 chl2c          76   8.9779658303691084E-002   3.7257729557919804E-002  0.55513977500000000        6.3360731318374270E-005   3.3929801520336259E-006
 chl          76   7.6813973862793330E-005   8.5558327258230724E-004   8.9779658303691084E-002
 chl2c          77   3.7138172437479272E-002   3.7138172437479272E-002  0.52973029999999999        6.3360731318374270E-005   1.0939934800724724E-016
 chl          77   3.0841921553316369E-005   8.3046417012677708E-004   3.7138172437479272E-002
 chl2c          78  0.16663899404955571        4.7515248899399322E-002  0.45117492500000000        1.8578649394756018E-005   2.4545315394128262E-006
 chl          78   1.4192636488229583E-004   8.5169960183562596E-004  0.16663899404955571     
 prod   4.0244930001587976E-007   125.67802719041903        10.000000000000000     
 dcdom   4.6070401392744761E-013  -4.2034788507956916E-009
 chl2c           1   3.7477407714772232E-002   3.7477407714772232E-002  0.60826437499999997        3.2883547784067649E-006   1.4947173947476655E-016
 chl           1   3.1733261631631435E-005   8.4673043218843908E-004   3.7477407714772232E-002
 chl2c           2  0.38379453346678721        3.2640259920490348E-002  0.48302390000000001        1.8346677542168098E-006   1.7137782159986631E-006
 chl           2   3.2704459449134073E-004   8.5213458236929910E-004  0.38379453346678721     
 chl2c           3   3.7922212503796585E-002   3.7922212503796585E-002  0.75128689999999998        3.2883547784067649E-006   1.6107642933549439E-016
 chl           3   3.2109891382885568E-005   8.4673043218854598E-004   3.7922212503796585E-002
 chl2c           4  0.51024834817333453        3.7976509103863923E-002  0.77318742499999993        3.2883547784067649E-006   2.4669476137625891E-006
 chl           4   4.3775150953157151E-004   8.5791852359483702E-004  0.51024834817333453     
 chl2c           5  0.31064120602304102        2.5710500362372445E-002  0.48489679999999996        6.7751365214227435E-006   2.9282604922653414E-006
 chl           5   2.6734621670904970E-004   8.6062702412126216E-004  0.31064120602304102     
 chl2c           6   3.1261039902252048E-002   3.1261039902252048E-002  0.29222855000000003        1.8346677542168098E-006   1.0127093412420959E-016
 chl           6   2.6472310627436099E-005   8.4681478000125747E-004   3.1261039902252048E-002
 chl2c           7  0.21179773415431155        4.3064391842467263E-002  0.22770740000000000        8.6689651362431492E-007   1.3139373457523809E-006
 chl           7   1.7968588394361835E-004   8.4838435435150993E-004  0.21179773415431155     
 chl2c           8   4.7969800906495587E-002   4.7969800906495587E-002  0.49578364999999996        8.6689651362431492E-007   7.1088707848326215E-017
 chl           8   4.0621536401325345E-005   8.4681478000098989E-004   4.7969800906495587E-002
 chl2c           9   2.4803669054600401E-002   2.4803669054600401E-002  0.28700202499999999        6.7751365214227435E-006   2.4092893712556129E-008
 chl           9   2.1009660469819005E-005   8.4703841288844678E-004   2.4803669054600401E-002
 chl2c          10  0.28469195967839789        2.5387016219684602E-002  0.39094662499999999        6.7751365214227435E-006   3.5484012014478460E-006
 chl          10   2.4497384045124755E-004   8.6048738688645121E-004  0.28469195967839789     
 chl2c          11   2.1820572217820047E-002   2.1820572217820047E-002  0.49737575000000001        3.2883547784067649E-006   1.4755990901927907E-016
 chl          11   1.8477983062144105E-005   8.4681478000168237E-004   2.1820572217820047E-002
 chl2c          12   4.5290941298723353E-002   4.5290941298723353E-002  0.30768942500000002        8.6689651362431492E-007   7.0481012214196104E-017
 chl          12   3.8353038491915903E-005   8.4681478000098414E-004   4.5290941298723353E-002
 chl2c          13   3.7935816987997487E-002   3.7935816987997487E-002  0.75666275000000005        3.2883547784067649E-006   1.3417580841450235E-016
 chl          13   3.2121410706192152E-005   8.4673043199135650E-004   3.7935816987997487E-002
 chl2c          14   4.6856526101924839E-002   4.6856526101924839E-002  0.39804095000000000        8.6689651362431492E-007   8.0070329544922478E-017
 chl          14   3.9678798842615540E-005   8.4681478000106286E-004   4.6856526101924839E-002
 chl2c          15  0.23203758429342641        2.0954299823745293E-002  0.25607262500000000        3.2883547784067649E-006   4.0646700585113257E-006
 chl          15   1.9796645428580157E-004   8.5316546838145105E-004  0.23203758429342641     
 chl2c          16   3.7823443882273475E-002   3.7823443882273475E-002  0.71433214999999994        3.2883547784067649E-006   1.6761804067205531E-016
 chl          16   3.2026260985298912E-005   8.4673043218860616E-004   3.7823443882273475E-002
 chl2c          17   3.7542254757581245E-002   3.7542254757581245E-002  0.62580860000000005        3.2883547784067649E-006   1.6753500746042612E-016
 chl          17   3.1788169596221494E-005   8.4673043218860540E-004   3.7542254757581245E-002
 chl2c          18   2.5694475239060960E-002   2.5694475239060960E-002  0.47925950000000000        6.7751365214227435E-006   1.5394321975890225E-016
 chl          18   2.1758461396825607E-005   8.4681478000174168E-004   2.5694475239060960E-002
 chl2c          19  0.30017928550034134        3.7570220750293731E-002  0.63367130000000005        3.2883547784067649E-006   9.3779516548023177E-007
 chl          19   2.5585526215933177E-004   8.5234149895743164E-004  0.30017928550034134     
 chl2c          20   3.7020645196759419E-002   3.7020645196759419E-002  0.50678202500000002        3.2883547784067649E-006   1.4762151699513084E-016
 chl          20   3.1346506900055426E-005   8.4673043199148042E-004   3.7020645196759419E-002
 chl2c          21   5.3320876218591155E-002   3.7838475073783531E-002  0.71973185000000006        3.2883547784067649E-006   9.4683549585080472E-008
 chl          21   4.5187573900898348E-005   8.4746495379502021E-004   5.3320876218591155E-002
 chl2c          22  0.50172276527993021        3.7613353106285476E-002  0.64616892500000001        3.2883547784067649E-006   3.6902224542007949E-006
 chl          22   4.3095603535565544E-004   8.5895252354197774E-004  0.50172276527993021     
 chl2c          23   3.2286562315070731E-002   3.2286562315070731E-002  0.41564179999999995        1.8346677542168098E-006   9.3338642778945964E-017
 chl          23   2.7340738163831569E-005   8.4681478000119730E-004   3.2286562315070731E-002
 chl2c          24   3.7348402796863071E-002   3.7348402796863071E-002  0.57597492500000003        3.2883547784067649E-006   1.2004894355667299E-016
 chl          24   3.1624029234370195E-005   8.4673043199122639E-004   3.7348402796863071E-002
 chl2c          25   4.5426679235459781E-002   4.5426679235459781E-002  0.31406487500000002        8.6689651362431492E-007   7.4080223953683353E-017
 chl          25   3.8467983382952681E-005   8.4681478000101786E-004   4.5426679235459781E-002
 chl2c          26   4.7955660680174553E-002   4.7955660680174553E-002  0.49427735000000000        8.6689651362431492E-007   6.8076393867253484E-017
 chl          26   4.0609562248682776E-005   8.4681478000096159E-004   4.7955660680174553E-002
 chl2c          27   4.5333133499525620E-002   4.5333133499525620E-002  0.30964730000000001        8.6689651362431492E-007   7.9458125455957467E-017
 chl          27   3.8388767471159350E-005   8.4681478000105733E-004   4.5333133499525620E-002
 chl2c          28   3.1209236063453518E-002   3.1209236063453518E-002  0.28776342500000002        1.8346677542168098E-006   7.9021632407106145E-017
 chl          28   2.6428442371074330E-005   8.4681478000105332E-004   3.1209236063453518E-002
 chl2c          29  0.52066513911743983        3.7743217595736761E-002  0.68676297499999994        3.2883547784067649E-006   3.5395664620703076E-006
 chl          29   4.4735776628240196E-004   8.5920437661853358E-004  0.52066513911743983     
 chl2c          30   2.5380056985171612E-002   2.5380056985171612E-002  0.38930277499999999        6.7751365214227435E-006   1.6854158885921792E-016
 chl          30   2.1492207372333179E-005   8.4681478000187612E-004   2.5380056985171612E-002
 chl2c          31  0.49745828527485420        3.7576959810037038E-002  0.63559385000000002        3.2883547784067649E-006   3.7633925324480155E-006
 chl          31   4.2727649935419084E-004   8.5891925414030101E-004  0.49745828527485420     
 chl2c          32  0.22216629402466437        2.0893126428578448E-002  0.24722667500000001        3.2883547784067649E-006   3.6035827644194078E-006
 chl          32   1.8947461177427238E-004   8.5285039571861136E-004  0.22216629402466437     
 chl2c          33  0.33907254982770957        3.7458922634011876E-002  0.60343137499999999        3.2883547784067649E-006   1.2725515309064079E-006
 chl          33   2.8941613577072211E-004   8.5355224396012298E-004  0.33907254982770957     
 chl2c          34  0.26235990666685072        2.5350269098008315E-002  0.38241020000000003        6.7751365214227435E-006   2.8310775441559737E-006
 chl          34   2.2535258620840455E-004   8.5894445180818456E-004  0.26235990666685072     
 chl2c          35   2.5740370148566064E-002   2.5740370148566064E-002  0.49574644999999995        6.7751365214227435E-006   1.2220785557517151E-016
 chl          35   2.1797325884513834E-005   8.4681478000144894E-004   2.5740370148566064E-002
 chl2c          36   3.7770393924465726E-002   3.7770393924465726E-002  0.69587337500000002        3.2883547784067649E-006   1.2786405984786007E-016
 chl          36   3.1981341971582939E-005   8.4673043218824002E-004   3.7770393924465726E-002
 chl2c          37   2.1353674699533250E-002   2.1353674699533250E-002  0.33194060000000003        3.2883547784067649E-006   1.1199961901973909E-016
 chl          37   1.8082607342905745E-005   8.4681478000135483E-004   2.1353674699533250E-002
 chl2c          38   2.1543295686358745E-002   2.1543295686358745E-002  0.38455722500000000        3.2883547784067649E-006   1.7198626607304488E-016
 chl          38   1.8243181197159932E-005   8.4681478000190788E-004   2.1543295686358745E-002
 chl2c          39   2.5670077108751441E-002   2.5670077108751441E-002  0.47091117500000002        6.7751365214227435E-006   1.3885348949552546E-016
 chl          39   2.1737800699471511E-005   8.4681478000160203E-004   2.5670077108751441E-002
 chl2c          40   3.7687445774703773E-002   3.7687445774703773E-002  0.66875547499999999        3.2883547784067649E-006   1.6793862649063502E-016
 chl          40   3.1911107248899696E-005   8.4673043218860908E-004   3.7687445774703773E-002
 chl2c          41   2.5582381488167241E-002   2.5582381488167241E-002  0.44304987499999998        6.7751365214227435E-006   1.0095669247507680E-016
 chl          41   2.1663538751810470E-005   8.4681478000125303E-004   2.5582381488167241E-002
 chl2c          42   3.7949995630725070E-002   3.7949995630725070E-002  0.76234377499999995        3.2883547784067649E-006   1.4186582574839968E-016
 chl          42   3.2133416194476620E-005   8.4673043199142740E-004   3.7949995630725070E-002
 chl2c          43   2.1185090152268007E-002   2.1185090152268007E-002  0.29539925000000000        3.2883547784067649E-006   1.7126037381002438E-016
 chl          43   1.7939847456613272E-005   8.4681478000190105E-004   2.1185090152268007E-002
 chl2c          44   3.7536352708156646E-002   3.7536352708156646E-002  0.62417262500000004        3.2883547784067649E-006   1.2133760853773129E-016
 chl          44   3.1783172143952959E-005   8.4673043199123821E-004   3.7536352708156646E-002
 chl2c          45  0.34418926871303129        4.6544927192009838E-002  0.37662252499999999        8.6689651362431492E-007   1.7324085685693509E-006
 chl          45   2.9232938802243122E-004   8.4932743288449700E-004  0.34418926871303129     
 chl2c          46  0.42348336096787548        3.7083195475449568E-002  0.51876034999999998        3.2883547784067649E-006   3.7910871944720323E-006
 chl          46   3.6310811601525123E-004   8.5743183672048876E-004  0.42348336096787548     
 chl2c          47   3.7519784612651236E-002   3.7519784612651236E-002  0.61962282499999999        3.2883547784067649E-006   1.5466400396433772E-016
 chl          47   3.1769143433299912E-005   8.4673043199154526E-004   3.7519784612651236E-002
 chl2c          48   3.7823212136301673E-002   3.7823212136301673E-002  0.71424949999999998        3.2883547784067649E-006   1.4879225203375193E-016
 chl          48   3.2026064751476528E-005   8.4673043199149126E-004   3.7823212136301673E-002
 chl2c          49   3.7152990741888416E-002   3.7152990741888416E-002  0.53276120000000005        3.2883547784067649E-006   1.3854969470035953E-016
 chl          49   3.1458567900651549E-005   8.4673043199139694E-004   3.7152990741888416E-002
 chl2c          50  0.27390037670144385        2.1533072915600981E-002  0.38132569999999999        3.2883547784067649E-006   1.5985665010380389E-006
 chl          50   2.3366948369361268E-004   8.5311851888512176E-004  0.27390037670144385     
 chl2c          51   2.0700971146093840E-002   2.0700971146093840E-002  0.22275920000000002        3.2883547784067649E-006   1.8262083383966715E-016
 chl          51   1.7529888326907325E-005   8.4681478000200579E-004   2.0700971146093840E-002
 chl2c          52   3.7581825176985564E-002   3.7581825176985564E-002  0.63698869999999996        3.2883547784067649E-006   1.6451046421149539E-016
 chl          52   3.1821675074544550E-005   8.4673043218857753E-004   3.7581825176985564E-002
 chl2c          53   3.7925801262726190E-002   3.7925801262726190E-002  0.75269794999999995        3.2883547784067649E-006   1.4746436586470220E-016
 chl          53   3.2112930094280294E-005   8.4673043218842054E-004   3.7925801262726190E-002
 chl2c          54   3.7082433371327092E-002   3.7082433371327092E-002  0.51861124999999997        3.2883547784067649E-006   1.2114401311573096E-016
 chl          54   3.1398824827790033E-005   8.4673043199123658E-004   3.7082433371327092E-002
 chl2c          55  0.46146352567610144        3.7357235588660491E-002  0.57808280000000001        3.2883547784067649E-006   3.7610210528308188E-006
 chl          55   3.9602721723138286E-004   8.5819830863371864E-004  0.46146352567610144     
 chl2c          56   3.7507394187257688E-002   3.7507394187257688E-002  0.61626080000000005        3.2883547784067649E-006   1.6494127999764492E-016
 chl          56   3.1758652090444193E-005   8.4673043218858144E-004   3.7507394187257688E-002
 chl2c          57  0.52976465740950685        3.7727617852646313E-002  0.68163462500000005        3.2883547784067649E-006   3.9094115876773545E-006
 chl          57   4.5541197640672741E-004   8.5964960107690806E-004  0.52976465740950685     
 chl2c          58  0.25342387254495763        3.7765358178394853E-002  0.69416802499999997        3.2883547784067649E-006   6.5625744092917096E-007
 chl          58   2.1568174577906842E-004   8.5107114658586976E-004  0.25342387254495763     
 chl2c          59   3.7173699120809672E-002   3.7173699120809672E-002  0.53705127500000005        3.2883547784067649E-006   1.6775628517054741E-016
 chl          59   3.1476102315291386E-005   8.4673043199166593E-004   3.7173699120809672E-002
 chl2c          60  0.10145083921301899        3.7607757740906807E-002  0.64452155000000000        3.2883547784067649E-006   1.9796361573664022E-007
 chl          60   8.6052043312471267E-005   8.4821420877342901E-004  0.10145083921301899     
 chl2c          61   3.7805373434125003E-002   3.7805373434125003E-002  0.70794139999999994        3.2883547784067649E-006   1.4434804077934044E-016
 chl          61   3.2010960179474755E-005   8.4673043199145017E-004   3.7805373434125003E-002
 chl2c          62   3.7956103087269030E-002   3.7956103087269030E-002  0.76481592499999995        3.2883547784067649E-006   1.1798195490342744E-016
 chl          62   3.2138587563786108E-005   8.4673043199120742E-004   3.7956103087269030E-002
 chl2c          63  0.43163235461401239        3.7855601011927406E-002  0.72597904999999996        3.2883547784067649E-006   1.7503608327047348E-006
 chl          63   3.6933289043984653E-004   8.5566544419526382E-004  0.43163235461401239     
 chl2c          64   2.5708982294816416E-002   2.5708982294816416E-002  0.48435739999999999        6.7751365214227435E-006   9.8250876982605431E-017
 chl          64   2.1770746186040430E-005   8.4681478000122809E-004   2.5708982294816416E-002
 chl2c          65   3.7953597170552002E-002   3.7953597170552002E-002  0.76379975000000000        3.2883547784067649E-006   1.3026953995613022E-016
 chl          65   3.2136465735320696E-005   8.4673043218826203E-004   3.7953597170552002E-002
 chl2c          66   3.1840477731474713E-002   3.1840477731474713E-002  0.35213202499999996        1.8346677542168098E-006   7.3699350435257592E-017
 chl          66   2.6962987145305955E-005   8.4681478000101429E-004   3.1840477731474713E-002
 chl2c          67   3.7937587124568600E-002   3.7937587124568600E-002  0.75736760000000003        3.2883547784067649E-006   1.3776787573000688E-016
 chl          67   3.2122909534696949E-005   8.4673043199138957E-004   3.7937587124568600E-002
 chl2c          68  0.16431674252766290        3.7855407263856986E-002  0.72590779999999999        3.2883547784067649E-006   3.4921409751844279E-007
 chl          68   1.3954761469543535E-004   8.4925986572513979E-004  0.16431674252766290     
 chl2c          69  0.36294915313489834        2.1732330561541505E-002  0.45524217500000003        3.2883547784067649E-006   2.9435273981604775E-006
 chl          69   3.1060968333951496E-004   8.5579393327326421E-004  0.36294915313489834     
 chl2c          70   3.2658010878182209E-002   3.2658010878182209E-002  0.48694062500000002        1.8346677542168098E-006   9.5096755991663781E-017
 chl          70   2.7655286297084688E-005   8.4681478000120077E-004   3.2658010878182209E-002
 chl2c          71   4.3481058864416305E-002   4.3481058864416305E-002  0.23986107500000001        8.6689651362431492E-007   8.1136367054679821E-017
 chl          71   3.6820403296484854E-005   8.4681478000108346E-004   4.3481058864416305E-002
 chl2c          72   3.7549776402781669E-002   3.7549776402781669E-002  0.62790522500000001        3.2883547784067649E-006   1.6545694593812945E-016
 chl          72   3.1794538402112099E-005   8.4673043218858621E-004   3.7549776402781669E-002
 chl2c          73   3.1852614277819484E-002   3.1852614277819484E-002  0.35362212500000001        1.8346677542168098E-006   8.9500643152062041E-017
 chl          73   2.6973264552133564E-005   8.4681478000116152E-004   3.1852614277819484E-002
 chl2c          74  0.10364398414013534        3.7616827685877569E-002  0.64719590000000005        3.2883547784067649E-006   2.0290254628970850E-007
 chl          74   8.7915939525153424E-005   8.4824932440153702E-004  0.10364398414013534     
 chl2c          75   3.7826830779512356E-002   3.7826830779512356E-002  0.71554212500000003        3.2883547784067649E-006   1.3070883040200563E-016
 chl          75   3.2029128774248908E-005   8.4673043218826615E-004   3.7826830779512356E-002
 chl2c          76  0.44141994621387542        3.7257729557919804E-002  0.55513977500000000        3.2883547784067649E-006   3.5429642723013750E-006
 chl          76   3.7859110042259673E-004   8.5766650027899497E-004  0.44141994621387542     
 chl2c          77   3.7138172437479272E-002   3.7138172437479272E-002  0.52973029999999999        3.2883547784067649E-006   1.1496328640842390E-016
 chl          77   3.1446020791349752E-005   8.4673043199117977E-004   3.7138172437479272E-002
 chl2c          78  0.41716569566046008        4.7515248899399322E-002  0.45117492500000000        8.6689651362431492E-007   2.3987998503694447E-006
 chl          78   3.5454296688616668E-004   8.4988523882542980E-004  0.41716569566046008     
 prod   3.8603012704986780E-007   8.4602947209624126        10.000000000000000     
 dcdom   6.0866138919036988E-013  -1.9569082819871536E-009
 chl2c           1   3.7477407714772232E-002   3.7477407714772232E-002  0.60826437499999997        2.7857552517652343E-007   1.4825521723964983E-016
 chl           1   3.1985544205202061E-005   8.5346202300418236E-004   3.7477407714772232E-002
 chl2c           2  0.46898413037087927        3.2640259920490348E-002  0.48302390000000001        1.7726526807604655E-007   1.4300803579890631E-006
 chl           2   4.0063061282107976E-004   8.5425196051784396E-004  0.46898413037087927     
 chl2c           3   3.7922212503796585E-002   3.7922212503796585E-002  0.75128689999999998        2.7857552517652343E-007   1.5968825950035772E-016
 chl           3   3.2365168200288820E-005   8.5346202300429013E-004   3.7922212503796585E-002
 chl2c           4  0.74163345000085934        3.7976509103863923E-002  0.77318742499999993        2.7857552517652343E-007   2.5312379722366865E-006
 chl           4   6.3432246699648140E-004   8.5530455374652594E-004  0.74163345000085934     
 chl2c           5  0.45864207103533122        2.5710500362372445E-002  0.48489679999999996        6.8059745135199583E-007   2.8825443066753456E-006
 chl           5   3.9270122824875764E-004   8.5622591787595976E-004  0.45864207103533122     
 chl2c           6   3.1261039902252048E-002   3.1261039902252048E-002  0.29222855000000003        1.7726526807604655E-007   9.5844077975170158E-017
 chl           6   2.6681425236297828E-005   8.5350408430833087E-004   3.1261039902252048E-002
 chl2c           7  0.22582696414205061        4.3064391842467263E-002  0.22770740000000000        8.2523328041225096E-008   1.1283430416123445E-006
 chl           7   1.9278272954978797E-004   8.5367453918621945E-004  0.22582696414205061     
 chl2c           8   4.7969800906495587E-002   4.7969800906495587E-002  0.49578364999999996        8.2523328041225096E-008   5.9681267295537579E-017
 chl           8   4.0942420997137564E-005   8.5350408430804128E-004   4.7969800906495587E-002
 chl2c           9  0.13916004780108213        2.4803669054600401E-002  0.28700202499999999        6.8059745135199583E-007   9.1931022587652683E-008
 chl           9   1.1885021934188592E-004   8.5405417158071516E-004  0.13916004780108213     
 chl2c          10  0.37658096557433529        2.5387016219684602E-002  0.39094662499999999        6.8059745135199583E-007   3.4874708764331251E-006
 chl          10   3.2226914992553154E-004   8.5577652453577651E-004  0.37658096557433529     
 chl2c          11   2.1820572217820047E-002   2.1820572217820047E-002  0.49737575000000001        2.7857552517652343E-007   1.4572751671260683E-016
 chl          11   1.8623947509864156E-005   8.5350408430878244E-004   2.1820572217820047E-002
 chl2c          12   4.5290941298723353E-002   4.5290941298723353E-002  0.30768942500000002        8.2523328041225096E-008   5.9159070020415761E-017
 chl          12   3.8656003380615873E-005   8.5350408430803575E-004   4.5290941298723353E-002
 chl2c          13   3.7935816987997487E-002   3.7935816987997487E-002  0.75666275000000005        2.7857552517652343E-007   1.3316961301610310E-016
 chl          13   3.2376779103341964E-005   8.5346202280514095E-004   3.7935816987997487E-002
 chl2c          14   4.6856526101924839E-002   4.6856526101924839E-002  0.39804095000000000        8.2523328041225096E-008   7.5177017889680736E-017
 chl          14   3.9992236404483648E-005   8.5350408430813626E-004   4.6856526101924839E-002
 chl2c          15  0.25380448492609814        2.0954299823745293E-002  0.25607262500000000        2.7857552517652343E-007   3.9912187946453326E-006
 chl          15   2.1678667406411316E-004   8.5414831864470914E-004  0.25380448492609814     
 chl2c          16   3.7823443882273475E-002   3.7823443882273475E-002  0.71433214999999994        2.7857552517652343E-007   1.6612860063992804E-016
 chl          16   3.2280872932756667E-005   8.5346202300435106E-004   3.7823443882273475E-002
 chl2c          17   3.7542254757581245E-002   3.7542254757581245E-002  0.62580860000000005        2.7857552517652343E-007   1.6604687304324214E-016
 chl          17   3.2040888693549982E-005   8.5346202300435031E-004   3.7542254757581245E-002
 chl2c          18   2.5694475239060960E-002   2.5694475239060960E-002  0.47925950000000000        6.8059745135199583E-007   1.5196816587623668E-016
 chl          18   2.1930339560710928E-005   8.5350408430884164E-004   2.5694475239060960E-002
 chl2c          19  0.58240741207588653        3.7570220750293731E-002  0.63367130000000005        2.7857552517652343E-007   1.0027492660721419E-006
 chl          19   4.9786977694684070E-004   8.5484794084655165E-004  0.58240741207588653     
 chl2c          20   3.7020645196759419E-002   3.7020645196759419E-002  0.50678202500000002        2.7857552517652343E-007   1.4643140548050951E-016
 chl          20   3.1595714735182360E-005   8.5346202280526628E-004   3.7020645196759419E-002
 chl2c          21  0.42744034139441267        3.7838475073783531E-002  0.71973185000000006        2.7857552517652343E-007   1.4660304581784293E-007
 chl          21   3.6512767184189074E-004   8.5421902539839110E-004  0.42744034139441267     
 chl2c          22  0.63072362230940437        3.7613353106285476E-002  0.64616892500000001        2.7857552517652343E-007   3.6753753958391782E-006
 chl          22   5.3930704411651279E-004   8.5506079848703250E-004  0.63072362230940437     
 chl2c          23   3.2286562315070731E-002   3.2286562315070731E-002  0.41564179999999995        1.7726526807604655E-007   7.8947976711407443E-017
 chl          23   2.7556712804185406E-005   8.5350408430824099E-004   3.2286562315070731E-002
 chl2c          24   3.7348402796863071E-002   3.7348402796863071E-002  0.57597492500000003        2.7857552517652343E-007   1.1922057678482934E-016
 chl          24   3.1875443399547034E-005   8.5346202280500954E-004   3.7348402796863071E-002
 chl2c          25   4.5426679235459781E-002   4.5426679235459781E-002  0.31406487500000002        8.2523328041225096E-008   6.2254994648530593E-017
 chl          25   3.8771856264017432E-005   8.5350408430806806E-004   4.5426679235459781E-002
 chl2c          26   4.7955660680174553E-002   4.7955660680174553E-002  0.49427735000000000        8.2523328041225096E-008   5.7094842507506108E-017
 chl          26   4.0930352256218223E-005   8.5350408430801418E-004   4.7955660680174553E-002
 chl2c          27   4.5333133499525620E-002   4.5333133499525620E-002  0.30964730000000001        8.2523328041225096E-008   7.4585083724731151E-017
 chl          27   3.8692014596330859E-005   8.5350408430813073E-004   4.5333133499525620E-002
 chl2c          28   3.1209236063453518E-002   3.1209236063453518E-002  0.28776342500000002        1.7726526807604655E-007   7.4163208396021960E-017
 chl          28   2.6637210448294058E-005   8.5350408430812661E-004   3.1209236063453518E-002
 chl2c          29  0.66846007061608848        3.7743217595736761E-002  0.68676297499999994        2.7857552517652343E-007   3.4936170235137453E-006
 chl          29   5.7163423669155515E-004   8.5515090851231621E-004  0.66846007061608848     
 chl2c          30   2.5380056985171612E-002   2.5380056985171612E-002  0.38930277499999999        6.8059745135199583E-007   1.6622390998120968E-016
 chl          30   2.1661982296838550E-005   8.5350408430897695E-004   2.5380056985171612E-002
 chl2c          31  0.62076279104303489        3.7576959810037038E-002  0.63559385000000002        2.7857552517652343E-007   3.7054944265682149E-006
 chl          31   5.3077502120490354E-004   8.5503678516727830E-004  0.62076279104303489     
 chl2c          32  0.24489226157608360        2.0893126428578448E-002  0.24722667500000001        2.7857552517652343E-007   3.6124810721431711E-006
 chl          32   2.0916867398315967E-004   8.5412529018674091E-004  0.24489226157608360     
 chl2c          33  0.56776018360845426        3.7458922634011876E-002  0.60343137499999999        2.7857552517652343E-007   1.3377906845762164E-006
 chl          33   4.8534640332574379E-004   8.5484402981744550E-004  0.56776018360845426     
 chl2c          34  0.36530492422611960        2.5350269098008315E-002  0.38241020000000003        6.8059745135199583E-007   2.7791707900205996E-006
 chl          34   3.1258822910395893E-004   8.5569125509644202E-004  0.36530492422611960     
 chl2c          35   2.5740370148566064E-002   2.5740370148566064E-002  0.49574644999999995        6.8059745135199583E-007   1.2089649096782726E-016
 chl          35   2.1969511053414945E-005   8.5350408430854728E-004   2.5740370148566064E-002
 chl2c          36   3.7770393924465726E-002   3.7770393924465726E-002  0.69587337500000002        2.7857552517652343E-007   1.2693928677940226E-016
 chl          36   3.2235596808431795E-005   8.5346202300398103E-004   3.7770393924465726E-002
 chl2c          37   2.1353674699533250E-002   2.1353674699533250E-002  0.33194060000000003        2.7857552517652343E-007   1.1087646034547645E-016
 chl          37   1.8225448571045691E-005   8.5350408430845219E-004   2.1353674699533250E-002
 chl2c          38   2.1543295686358745E-002   2.1543295686358745E-002  0.38455722500000000        2.7857552517652343E-007   1.6958452748605408E-016
 chl          38   1.8387290857783844E-005   8.5350408430900893E-004   2.1543295686358745E-002
 chl2c          39   2.5670077108751441E-002   2.5670077108751441E-002  0.47091117500000002        6.8059745135199583E-007   1.3720838694020474E-016
 chl          39   2.1909515656838667E-005   8.5350408430870178E-004   2.5670077108751441E-002
 chl2c          40   3.7687445774703773E-002   3.7687445774703773E-002  0.66875547499999999        2.7857552517652343E-007   1.6644414071253742E-016
 chl          40   3.2164803712745579E-005   8.5346202300435410E-004   3.7687445774703773E-002
 chl2c          41   2.5582381488167241E-002   2.5582381488167241E-002  0.44304987499999998        6.8059745135199583E-007   1.0002244802729171E-016
 chl          41   2.1834667086485055E-005   8.5350408430834963E-004   2.5582381488167241E-002
 chl2c          42   3.7949995630725070E-002   3.7949995630725070E-002  0.76234377499999995        2.7857552517652343E-007   1.4075617420467666E-016
 chl          42   3.2388880036447600E-005   8.5346202280521272E-004   3.7949995630725070E-002
 chl2c          43   2.1185090152268007E-002   2.1185090152268007E-002  0.29539925000000000        2.7857552517652343E-007   1.6887644858414813E-016
 chl          43   1.8081560971415165E-005   8.5350408430900221E-004   2.1185090152268007E-002
 chl2c          44   3.7536352708156646E-002   3.7536352708156646E-002  0.62417262500000004        2.7857552517652343E-007   1.2049368301374484E-016
 chl          44   3.2035851511026112E-005   8.5346202280502136E-004   3.7536352708156646E-002
 chl2c          45  0.37252057747391448        4.6544927192009838E-002  0.37662252499999999        8.2523328041225096E-008   1.4112800302345457E-006
 chl          45   3.1805235576680315E-004   8.5378466318165890E-004  0.37252057747391448     
 chl2c          46  0.50892571968561862        3.7083195475449568E-002  0.51876034999999998        2.7857552517652343E-007   3.7391776310729054E-006
 chl          46   4.3500938721287074E-004   8.5476007673888324E-004  0.50892571968561862     
 chl2c          47   3.7519784612651236E-002   3.7519784612651236E-002  0.61962282499999999        2.7857552517652343E-007   1.5337195604737332E-016
 chl          47   3.2021711270733687E-005   8.5346202280533188E-004   3.7519784612651236E-002
 chl2c          48   3.7823212136301673E-002   3.7823212136301673E-002  0.71424949999999998        2.7857552517652343E-007   1.4758545979713927E-016
 chl          48   3.2280675138841130E-005   8.5346202280527713E-004   3.7823212136301673E-002
 chl2c          49   3.7152990741888416E-002   3.7152990741888416E-002  0.53276120000000005        2.7857552517652343E-007   1.3748522602286391E-016
 chl          49   3.1708666631834277E-005   8.5346202280518172E-004   3.7152990741888416E-002
 chl2c          50  0.36965936684394773        2.1533072915600981E-002  0.38132569999999999        2.7857552517652343E-007   1.6829700187497636E-006
 chl          50   3.1584497516335834E-004   8.5442167436458551E-004  0.36965936684394773     
 chl2c          51   2.0700971146093840E-002   2.0700971146093840E-002  0.22275920000000002        2.7857552517652343E-007   1.7995215149201681E-016
 chl          51   1.7668363422356073E-005   8.5350408430910716E-004   2.0700971146093840E-002
 chl2c          52   3.7581825176985564E-002   3.7581825176985564E-002  0.63698869999999996        2.7857552517652343E-007   1.6306953465031397E-016
 chl          52   3.2074660543744869E-005   8.5346202300432212E-004   3.7581825176985564E-002
 chl2c          53   3.7925801262726190E-002   3.7925801262726190E-002  0.75269794999999995        2.7857552517652343E-007   1.4627648537432473E-016
 chl          53   3.2368231069740164E-005   8.5346202300416371E-004   3.7925801262726190E-002
 chl2c          54   3.7082433371327092E-002   3.7082433371327092E-002  0.51861124999999997        2.7857552517652343E-007   1.2030243352386031E-016
 chl          54   3.1648448595625178E-005   8.5346202280501952E-004   3.7082433371327092E-002
 chl2c          55  0.56588946143410934        3.7357235588660491E-002  0.57808280000000001        2.7857552517652343E-007   3.7369043639939237E-006
 chl          55   4.8377971921901409E-004   8.5490144664117254E-004  0.56588946143410934     
 chl2c          56   3.7507394187257688E-002   3.7507394187257688E-002  0.61626080000000005        2.7857552517652343E-007   1.6349366861842954E-016
 chl          56   3.2011136520677652E-005   8.5346202300432624E-004   3.7507394187257688E-002
 chl2c          57  0.66515753100866548        3.7727617852646313E-002  0.68163462500000005        2.7857552517652343E-007   3.8327324081758724E-006
 chl          57   5.6880800471200170E-004   8.5514780814319831E-004  0.66515753100866548     
 chl2c          58  0.61341260555196386        3.7765358178394853E-002  0.69416802499999997        2.7857552517652343E-007   7.3444382990982146E-007
 chl          58   5.2438889767782637E-004   8.5487140781198697E-004  0.61341260555196386     
 chl2c          59   3.7173699120809672E-002   3.7173699120809672E-002  0.53705127500000005        2.7857552517652343E-007   1.6626467023359025E-016
 chl          59   3.1726340446807546E-005   8.5346202280545385E-004   3.7173699120809672E-002
 chl2c          60  0.47316479598535444        3.7607757740906807E-002  0.64452155000000000        2.7857552517652343E-007   2.4789148176660929E-007
 chl          60   4.0427613538800443E-004   8.5440873627571766E-004  0.47316479598535444     
 chl2c          61   3.7805373434125003E-002   3.7805373434125003E-002  0.70794139999999994        2.7857552517652343E-007   1.4320400599797818E-016
 chl          61   3.2265450483995651E-005   8.5346202280523582E-004   3.7805373434125003E-002
 chl2c          62   3.7956103087269030E-002   3.7956103087269030E-002  0.76481592499999995        2.7857552517652343E-007   1.1717826386166921E-016
 chl          62   3.2394092518655364E-005   8.5346202280499025E-004   3.7956103087269030E-002
 chl2c          63  0.68735795749358841        3.7855601011927406E-002  0.72597904999999996        2.7857552517652343E-007   1.7996807048731235E-006
 chl          63   5.8779160696604464E-004   8.5514628958307723E-004  0.68735795749358841     
 chl2c          64   2.5708982294816416E-002   2.5708982294816416E-002  0.48435739999999999        6.8059745135199583E-007   9.7360536784903144E-017
 chl          64   2.1942721392036213E-005   8.5350408430832458E-004   2.5708982294816416E-002
 chl2c          65   3.7953597170552002E-002   3.7953597170552002E-002  0.76379975000000000        2.7857552517652343E-007   1.2931410930526960E-016
 chl          65   3.2391953821458335E-005   8.5346202300400358E-004   3.7953597170552002E-002
 chl2c          66   3.1840477731474713E-002   3.1840477731474713E-002  0.35213202499999996        1.7726526807604655E-007   6.1927026910484968E-017
 chl          66   2.7175977790133650E-005   8.5350408430806470E-004   3.1840477731474713E-002
 chl2c          67   3.7937587124568600E-002   3.7937587124568600E-002  0.75736760000000003        2.7857552517652343E-007   1.3671393380870606E-016
 chl          67   3.2378289847681860E-005   8.5346202280517445E-004   3.7937587124568600E-002
 chl2c          68  0.58543846241379016        3.7855407263856986E-002  0.72590779999999999        2.7857552517652343E-007   4.2139962264207263E-007
 chl          68   5.0038180403613264E-004   8.5471289667753483E-004  0.58543846241379016     
 chl2c          69  0.44549520046239061        2.1732330561541505E-002  0.45524217500000003        2.7857552517652343E-007   2.8982019869011446E-006
 chl          69   3.8072930396501349E-004   8.5462043938934701E-004  0.44549520046239061     
 chl2c          70   3.2658010878182209E-002   3.2658010878182209E-002  0.48694062500000002        1.7726526807604655E-007   8.9791335156214767E-017
 chl          70   2.7873745669912561E-005   8.5350408430827417E-004   3.2658010878182209E-002
 chl2c          71   4.3481058864416305E-002   4.3481058864416305E-002  0.23986107500000001        8.2523328041225096E-008   6.8346149659288023E-017
 chl          71   3.7111261330821597E-005   8.5350408430813138E-004   4.3481058864416305E-002
 chl2c          72   3.7549776402781669E-002   3.7549776402781669E-002  0.62790522500000001        2.7857552517652343E-007   1.6400131835866387E-016
 chl          72   3.2047308132078331E-005   8.5346202300433090E-004   3.7549776402781669E-002
 chl2c          73   3.1852614277819484E-002   3.1852614277819484E-002  0.35362212500000001        1.7726526807604655E-007   7.5603987560001902E-017
 chl          73   2.7186336382012817E-005   8.5350408430820630E-004   3.1852614277819484E-002
 chl2c          74  0.48132785029622582        3.7616827685877569E-002  0.64719590000000005        2.7857552517652343E-007   2.6159351453870802E-007
 chl          74   4.1126254975512437E-004   8.5443331297372293E-004  0.48132785029622582     
 chl2c          75   3.7826830779512356E-002   3.7826830779512356E-002  0.71554212500000003        2.7857552517652343E-007   1.2974775129504563E-016
 chl          75   3.2283763520912872E-005   8.5346202300400748E-004   3.7826830779512356E-002
 chl2c          76  0.54314599708808264        3.7257729557919804E-002  0.55513977500000000        2.7857552517652343E-007   3.5016754206877112E-006
 chl          76   4.6430439500290719E-004   8.5484270802351208E-004  0.54314599708808264     
 chl2c          77   3.7138172437479272E-002   3.7138172437479272E-002  0.52973029999999999        2.7857552517652343E-007   1.1419501028240454E-016
 chl          77   3.1696019771770548E-005   8.5346202280496206E-004   3.7138172437479272E-002
 chl2c          78  0.44746749060267182        4.7515248899399322E-002  0.45117492500000000        8.2523328041225096E-008   2.2468791112431067E-006
 chl          78   3.8206625506003095E-004   8.5384136967234161E-004  0.44746749060267182     
 prod   3.1656240495769421E-007  0.81299924192995410        10.000000000000000     
 dcdom   6.5632203334770664E-013  -4.5586091737424639E-010
 chl2c           1   3.7477407714772232E-002   3.7477407714772232E-002  0.60826437499999997        2.7767257502271875E-008   1.4371623584708851E-016
 chl           1   3.2294957451556168E-005   8.6171801682074904E-004   3.7477407714772232E-002
 chl2c           2  0.48139465549066185        3.2640259920490348E-002  0.48302390000000001        1.9447580404341085E-008   1.3877754437171233E-006
 chl           2   4.1485166988913450E-004   8.6177041052999778E-004  0.48139465549066185     
 chl2c           3   3.7922212503796585E-002   3.7922212503796585E-002  0.75128689999999998        2.7767257502271875E-008   1.5484682612131428E-016
 chl           3   3.2678253752226616E-005   8.6171801682074936E-004   3.7922212503796585E-002
 chl2c           4  0.77003273142206607        3.7976509103863923E-002  0.77318742499999993        2.7767257502271875E-008   2.6202321943946073E-006
 chl           4   6.6355502031212603E-004   8.6172313621876674E-004  0.77003273142206607     
 chl2c           5  0.48181197168640560        2.5710500362372445E-002  0.48489679999999996        7.3070105779940806E-008   2.7669776228317977E-006
 chl           5   4.1521198298017324E-004   8.6177182672916245E-004  0.48181197168640560     
 chl2c           6   3.1261039902252048E-002   3.1261039902252048E-002  0.29222855000000003        1.9447580404341085E-008   9.5207064025544267E-017
 chl           6   2.6939822396707945E-005   8.6176987332936409E-004   3.1261039902252048E-002
 chl2c           7  0.22750509207616540        4.3064391842467263E-002  0.22770740000000000        9.0180823189568933E-009   1.1546213201884669E-006
 chl           7   1.9605706220746902E-004   8.6176999564401815E-004  0.22750509207616540     
 chl2c           8   4.7969800906495587E-002   4.7969800906495587E-002  0.49578364999999996        9.0180823189568933E-009   5.8591741241083543E-017
 chl           8   4.1338929250825508E-005   8.6176987332936387E-004   4.7969800906495587E-002
 chl2c           9  0.27533609434793632        2.4803669054600401E-002  0.28700202499999999        7.3070105779940806E-008   2.4747906046093772E-007
 chl           9   2.3727646021110674E-004   8.6177026943392882E-004  0.27533609434793632     
 chl2c          10  0.38928813528836415        2.5387016219684602E-002  0.39094662499999999        7.3070105779940806E-008   3.3526297496703115E-006
 chl          10   3.3547742178588686E-004   8.6177150386919160E-004  0.38928813528836415     
 chl2c          11   2.1820572217820047E-002   2.1820572217820047E-002  0.49737575000000001        2.7767257502271875E-008   1.4166402329003210E-016
 chl          11   1.8804311756125027E-005   8.6176987332936431E-004   2.1820572217820047E-002
 chl2c          12   4.5290941298723353E-002   4.5290941298723353E-002  0.30768942500000002        9.0180823189568933E-009   5.8077950510799760E-017
 chl          12   3.9030368745968477E-005   8.6176987332936387E-004   4.5290941298723353E-002
 chl2c          13   3.7935816987997487E-002   3.7935816987997487E-002  0.75666275000000005        2.7767257502271875E-008   1.2903987588469986E-016
 chl          13   3.2689976973761858E-005   8.6171801662014139E-004   3.7935816987997487E-002
 chl2c          14   4.6856526101924839E-002   4.6856526101924839E-002  0.39804095000000000        9.0180823189568933E-009   7.4627845696093856E-017
 chl          14   4.0379542563509807E-005   8.6176987332936398E-004   4.6856526101924839E-002
 chl2c          15  0.25583591769419489        2.0954299823745293E-002  0.25607262500000000        2.7767257502271875E-008   3.8425187888520372E-006
 chl          15   2.2047180457150978E-004   8.6177033529374696E-004  0.25583591769419489     
 chl2c          16   3.7823443882273475E-002   3.7823443882273475E-002  0.71433214999999994        2.7767257502271875E-008   1.6111969944152521E-016
 chl          16   3.2593143051563614E-005   8.6171801682074958E-004   3.7823443882273475E-002
 chl2c          17   3.7542254757581245E-002   3.7542254757581245E-002  0.62580860000000005        2.7767257502271875E-008   1.6104008392923532E-016
 chl          17   3.2350837316682258E-005   8.6171801682074958E-004   3.7542254757581245E-002
 chl2c          18   2.5694475239060960E-002   2.5694475239060960E-002  0.47925950000000000        7.3070105779940806E-008   1.4777212851204279E-016
 chl          18   2.2142724672030051E-005   8.6176987332936431E-004   2.5694475239060960E-002
 chl2c          19  0.62871840593238182        3.7570220750293731E-002  0.63367130000000005        2.7767257502271875E-008   1.1167710957305461E-006
 chl          19   5.4178040754686426E-004   8.6172188126640010E-004  0.62871840593238182     
 chl2c          20   3.7020645196759419E-002   3.7020645196759419E-002  0.50678202500000002        2.7767257502271875E-008   1.4194128440765626E-016
 chl          20   3.1901356952949503E-005   8.6171801662014182E-004   3.7020645196759419E-002
 chl2c          21  0.69298463053817849        3.7838475073783531E-002  0.71973185000000006        2.7767257502271875E-008   2.5889202674285176E-007
 chl          21   5.9715881594065616E-004   8.6172014446683602E-004  0.69298463053817849     
 chl2c          22  0.64455785754114947        3.7613353106285476E-002  0.64616892500000001        2.7767257502271875E-008   3.5891965531143443E-006
 chl          22   5.5542997491835066E-004   8.6172244806261044E-004  0.64455785754114947     
 chl2c          23   3.2286562315070731E-002   3.2286562315070731E-002  0.41564179999999995        1.9447580404341085E-008   7.7562231673761104E-017
 chl          23   2.7823586716499120E-005   8.6176987332936398E-004   3.2286562315070731E-002
 chl2c          24   3.7348402796863071E-002   3.7348402796863071E-002  0.57597492500000003        2.7767257502271875E-008   1.1547962537928615E-016
 chl          24   3.2183791582042976E-005   8.6171801662014106E-004   3.7348402796863071E-002
 chl2c          25   4.5426679235459781E-002   4.5426679235459781E-002  0.31406487500000002        9.0180823189568933E-009   6.1124326922155226E-017
 chl          25   3.9147343610515817E-005   8.6176987332936387E-004   4.5426679235459781E-002
 chl2c          26   4.7955660680174553E-002   4.7955660680174553E-002  0.49427735000000000        9.0180823189568933E-009   5.6047148882407100E-017
 chl          26   4.1326743629779977E-005   8.6176987332936387E-004   4.7955660680174553E-002
 chl2c          27   4.5333133499525620E-002   4.5333133499525620E-002  0.30964730000000001        9.0180823189568933E-009   7.4038820763855352E-017
 chl          27   3.9066728713509343E-005   8.6176987332936398E-004   4.5333133499525620E-002
 chl2c          28   3.1209236063453518E-002   3.1209236063453518E-002  0.28776342500000002        1.9447580404341085E-008   7.3619032316906114E-017
 chl          28   2.6895179409108554E-005   8.6176987332936387E-004   3.1209236063453518E-002
 chl2c          29  0.68481333791404275        3.7743217595736761E-002  0.68676297499999994        2.7767257502271875E-008   3.3491014123123115E-006
 chl          29   5.9011919815862943E-004   8.6172269943828224E-004  0.68481333791404275     
 chl2c          30   2.5380056985171612E-002   2.5380056985171612E-002  0.38930277499999999        7.3070105779940806E-008   1.6173710022724445E-016
 chl          30   2.1871768493203394E-005   8.6176987332936452E-004   2.5380056985171612E-002
 chl2c          31  0.63401088975778408        3.7576959810037038E-002  0.63559385000000002        2.7767257502271875E-008   3.5343486484735872E-006
 chl          31   5.4634137330730509E-004   8.6172238069290568E-004  0.63401088975778408     
 chl2c          32  0.24699210120361148        2.0893126428578448E-002  0.24722667500000001        2.7767257502271875E-008   3.6141143399097611E-006
 chl          32   2.1285046179342991E-004   8.6177031879235513E-004  0.24699210120361148     
 chl2c          33  0.59995105919448954        3.7458922634011876E-002  0.60343137499999999        2.7767257502271875E-008   1.4442023586747127E-006
 chl          33   5.1699094507977360E-004   8.6172186406987866E-004  0.59995105919448954     
 chl2c          34  0.38040125189170793        2.5350269098008315E-002  0.38241020000000003        7.3070105779940806E-008   2.6455283911412928E-006
 chl          34   3.2781893572169090E-004   8.6177144289476188E-004  0.38040125189170793     
 chl2c          35   2.5740370148566064E-002   2.5740370148566064E-002  0.49574644999999995        7.3070105779940806E-008   1.1739264848943652E-016
 chl          35   2.2182275522380724E-005   8.6176987332936420E-004   2.5740370148566064E-002
 chl2c          36   3.7770393924465726E-002   3.7770393924465726E-002  0.69587337500000002        2.7767257502271875E-008   1.2298196355304872E-016
 chl          36   3.2547428947129056E-005   8.6171801682074849E-004   3.7770393924465726E-002
 chl2c          37   2.1353674699533250E-002   2.1353674699533250E-002  0.33194060000000003        2.7767257502271875E-008   1.0761329205624618E-016
 chl          37   1.8401953540933217E-005   8.6176987332936420E-004   2.1353674699533250E-002
 chl2c          38   2.1543295686358745E-002   2.1543295686358745E-002  0.38455722500000000        2.7767257502271875E-008   1.6503158006566905E-016
 chl          38   1.8565363194730420E-005   8.6176987332936452E-004   2.1543295686358745E-002
 chl2c          39   2.5670077108751441E-002   2.5670077108751441E-002  0.47091117500000002        7.3070105779940806E-008   1.3333105516306087E-016
 chl          39   2.2121699098363743E-005   8.6176987332936431E-004   2.5670077108751441E-002
 chl2c          40   3.7687445774703773E-002   3.7687445774703773E-002  0.66875547499999999        2.7767257502271875E-008   1.6142708816857172E-016
 chl          40   3.2475951032017274E-005   8.6171801682074958E-004   3.7687445774703773E-002
 chl2c          41   2.5582381488167241E-002   2.5582381488167241E-002  0.44304987499999998        7.3070105779940806E-008   9.7029779321991233E-017
 chl          41   2.2046125654521353E-005   8.6176987332936409E-004   2.5582381488167241E-002
 chl2c          42   3.7949995630725070E-002   3.7949995630725070E-002  0.76234377499999995        2.7767257502271875E-008   1.3641917661647261E-016
 chl          42   3.2702194965651445E-005   8.6171801662014160E-004   3.7949995630725070E-002
 chl2c          43   2.1185090152268007E-002   2.1185090152268007E-002  0.29539925000000000        2.7767257502271875E-008   1.6433736043135418E-016
 chl          43   1.8256672456991169E-005   8.6176987332936452E-004   2.1185090152268007E-002
 chl2c          44   3.7536352708156646E-002   3.7536352708156646E-002  0.62417262500000004        2.7767257502271875E-008   1.1671683215865839E-016
 chl          44   3.2345751406826805E-005   8.6171801662014106E-004   3.7536352708156646E-002
 chl2c          45  0.37612083490282083        4.6544927192009838E-002  0.37662252499999999        9.0180823189568933E-009   1.2731581462858484E-006
 chl          45   3.2412967998636972E-004   8.6177007468920413E-004  0.37612083490282083     
 chl2c          46  0.51771940941913730        3.7083195475449568E-002  0.51876034999999998        2.7767257502271875E-008   3.5821046876286447E-006
 chl          46   4.4613000365489430E-004   8.6172161124002721E-004  0.51771940941913730     
 chl2c          47   3.7519784612651236E-002   3.7519784612651236E-002  0.61962282499999999        2.7767257502271875E-008   1.4869679736841057E-016
 chl          47   3.2331474380428744E-005   8.6171801662014204E-004   3.7519784612651236E-002
 chl2c          48   3.7823212136301673E-002   3.7823212136301673E-002  0.71424949999999998        2.7767257502271875E-008   1.4306440171567608E-016
 chl          48   3.2592943344296757E-005   8.6171801662014182E-004   3.7823212136301673E-002
 chl2c          49   3.7152990741888416E-002   3.7152990741888416E-002  0.53276120000000005        2.7767257502271875E-008   1.3323722800447640E-016
 chl          49   3.2015401493606567E-005   8.6171801662014149E-004   3.7152990741888416E-002
 chl2c          50  0.38022783581401531        2.1533072915600981E-002  0.38132569999999999        2.7767257502271875E-008   1.8335567571176411E-006
 chl          50   3.2766914422155695E-004   8.6177053166047810E-004  0.38022783581401531     
 chl2c          51   2.0700971146093840E-002   2.0700971146093840E-002  0.22275920000000002        2.7767257502271875E-008   1.7520089033621400E-016
 chl          51   1.7839473282364122E-005   8.6176987332936463E-004   2.0700971146093840E-002
 chl2c          52   3.7581825176985564E-002   3.7581825176985564E-002  0.63698869999999996        2.7767257502271875E-008   1.5813991779652730E-016
 chl          52   3.2384935860016110E-005   8.6171801682074947E-004   3.7581825176985564E-002
 chl2c          53   3.7925801262726190E-002   3.7925801262726190E-002  0.75269794999999995        2.7767257502271875E-008   1.4179052243599743E-016
 chl          53   3.2681346250454274E-005   8.6171801682074904E-004   3.7925801262726190E-002
 chl2c          54   3.7082433371327092E-002   3.7082433371327092E-002  0.51861124999999997        2.7767257502271875E-008   1.1653097024045143E-016
 chl          54   3.1954600936188512E-005   8.6171801662014106E-004   3.7082433371327092E-002
 chl2c          55  0.57680823352937205        3.7357235588660491E-002  0.57808280000000001        2.7767257502271875E-008   3.6321351609610093E-006
 chl          55   4.9704834710519966E-004   8.6172200431998359E-004  0.57680823352937205     
 chl2c          56   3.7507394187257688E-002   3.7507394187257688E-002  0.61626080000000005        2.7767257502271875E-008   1.5855303102344218E-016
 chl          56   3.2320797335157801E-005   8.6171801682074947E-004   3.7507394187257688E-002
 chl2c          57  0.67985881149803873        3.7727617852646313E-002  0.68163462500000005        2.7767257502271875E-008   3.6230640545227959E-006
 chl          57   5.8584976307798204E-004   8.6172268884342044E-004  0.67985881149803873     
 chl2c          58  0.68672448708378186        3.7765358178394853E-002  0.69416802499999997        2.7767257502271875E-008   8.8914118248841675E-007
 chl          58   5.9176556701713437E-004   8.6172195421500624E-004  0.68672448708378186     
 chl2c          59   3.7173699120809672E-002   3.7173699120809672E-002  0.53705127500000005        2.7767257502271875E-008   1.6125225333637634E-016
 chl          59   3.2033246276818041E-005   8.6171801662014236E-004   3.7173699120809672E-002
 chl2c          60  0.62853912711691751        3.7607757740906807E-002  0.64452155000000000        2.7767257502271875E-008   3.5190880671929931E-007
 chl          60   5.4162515902509453E-004   8.6172067204392882E-004  0.62853912711691751     
 chl2c          61   3.7805373434125003E-002   3.7805373434125003E-002  0.70794139999999994        2.7767257502271875E-008   1.3880076223419605E-016
 chl          61   3.2577571413237992E-005   8.6171801662014160E-004   3.7805373434125003E-002
 chl2c          62   3.7956103087269030E-002   3.7956103087269030E-002  0.76481592499999995        2.7767257502271875E-008   1.1349507714804709E-016
 chl          62   3.2707457870991078E-005   8.6171801662014095E-004   3.7956103087269030E-002
 chl2c          63  0.72206740729650731        3.7855601011927406E-002  0.72597904999999996        2.7767257502271875E-008   1.8605684138984912E-006
 chl          63   6.2222187764473375E-004   8.6172270255819303E-004  0.72206740729650731     
 chl2c          64   2.5708982294816416E-002   2.5708982294816416E-002  0.48435739999999999        7.3070105779940806E-008   9.4435775843982779E-017
 chl          64   2.2155226415630806E-005   8.6176987332936409E-004   2.5708982294816416E-002
 chl2c          65   3.7953597170552002E-002   3.7953597170552002E-002  0.76379975000000000        2.7767257502271875E-008   1.2529083176871838E-016
 chl          65   3.2705298485021645E-005   8.6171801682074860E-004   3.7953597170552002E-002
 chl2c          66   3.1840477731474713E-002   3.1840477731474713E-002  0.35213202499999996        1.9447580404341085E-008   6.0801574906009118E-017
 chl          66   2.7439164461399393E-005   8.6176987332936387E-004   3.1840477731474713E-002
 chl2c          67   3.7937587124568600E-002   3.7937587124568600E-002  0.75736760000000003        2.7767257502271875E-008   1.3248700160197093E-016
 chl          67   3.2691502332337072E-005   8.6171801662014149E-004   3.7937587124568600E-002
 chl2c          68  0.71333788846658086        3.7855407263856986E-002  0.72590779999999999        2.7767257502271875E-008   5.7193612136553774E-007
 chl          68   6.1469860975357012E-004   8.6172152032320951E-004  0.71333788846658086     
 chl2c          69  0.45421083657386396        2.1732330561541505E-002  0.45524217500000003        2.7767257502271875E-008   2.7835676071449890E-006
 chl          69   3.9142557880023201E-004   8.6177067406135793E-004  0.45421083657386396     
 chl2c          70   3.2658010878182209E-002   3.2658010878182209E-002  0.48694062500000002        1.9447580404341085E-008   8.9177295099730084E-017
 chl          70   2.8143689897680076E-005   8.6176987332936409E-004   3.2658010878182209E-002
 chl2c          71   4.3481058864416305E-002   4.3481058864416305E-002  0.23986107500000001        9.0180823189568933E-009   6.7120043097501047E-017
 chl          71   3.7470666589814656E-005   8.6176987332936398E-004   4.3481058864416305E-002
 chl2c          72   3.7549776402781669E-002   3.7549776402781669E-002  0.62790522500000001        2.7767257502271875E-008   1.5904750184297471E-016
 chl          72   3.2357318853867594E-005   8.6171801682074947E-004   3.7549776402781669E-002
 chl2c          73   3.1852614277819484E-002   3.1852614277819484E-002  0.35362212500000001        1.9447580404341085E-008   7.4267706622909122E-017
 chl          73   2.7449623371405589E-005   8.6176987332936398E-004   3.1852614277819484E-002
 chl2c          74  0.63245955253561914        3.7616827685877569E-002  0.64719590000000005        2.7767257502271875E-008   3.8563962583302040E-007
 chl          74   5.4500351413350938E-004   8.6172074079443302E-004  0.63245955253561914     
 chl2c          75   3.7826830779512356E-002   3.7826830779512356E-002  0.71554212500000003        2.7767257502271875E-008   1.2571246180323377E-016
 chl          75   3.2596061601935437E-005   8.6171801682074860E-004   3.7826830779512356E-002
 chl2c          76  0.55387093967888767        3.7257729557919804E-002  0.55513977500000000        2.7767257502271875E-008   3.3644079976974927E-006
 chl          76   4.7728268643251390E-004   8.6172184211221370E-004  0.55387093967888767     
 chl2c          77   3.7138172437479272E-002   3.7138172437479272E-002  0.52973029999999999        2.7767257502271875E-008   1.1059658953348527E-016
 chl          77   3.2002632293721426E-005   8.6171801662014095E-004   3.7138172437479272E-002
 chl2c          78  0.45075507345802140        4.7515248899399322E-002  0.45117492500000000        9.0180823189568933E-009   2.1841075771882309E-006
 chl          78   3.8844725162765365E-004   8.6177011530371502E-004  0.45075507345802140     
 prod   3.1009587244202807E-007   8.7372703624573361E-002   10.000000000000000     
 dcdom   7.0824984380762047E-013  -3.1281560770733948E-010
 chl2c           1   3.7477407714772232E-002   3.7477407714772232E-002  0.60826437499999997        2.9820220950576825E-009   1.4062460516717953E-016
 chl           1   3.2623481134669435E-005   8.7048392949041792E-004   3.7477407714772232E-002
 chl2c           2  0.48283357498999147        3.2640259920490348E-002  0.48302390000000001        2.2172200961693067E-009   1.3584668081014414E-006
 chl           2   4.2032543778695159E-004   8.7053895909302583E-004  0.48283357498999147     
 chl2c           3   3.7922212503796585E-002   3.7922212503796585E-002  0.75128689999999998        2.9820220950576825E-009   1.5155217009701204E-016
 chl           3   3.3010676555275511E-005   8.7048392949041792E-004   3.7922212503796585E-002
 chl2c           4  0.77286643406120836        3.7976509103863923E-002  0.77318742499999993        2.9820220950576825E-009   2.7757306221535686E-006
 chl           4   6.7276781595467449E-004   8.7048393655739177E-004  0.77286643406120836     
 chl2c           5  0.48453897147376690        2.5710500362372445E-002  0.48489679999999996        8.1102084463130035E-009   2.6625948780511235E-006
 chl           5   4.2181005227763611E-004   8.7053895994096116E-004  0.48453897147376690     
 chl2c           6   3.1261039902252048E-002   3.1261039902252048E-002  0.29222855000000003        2.2172200961693067E-009   9.5035939928142195E-017
 chl           6   2.7213953126611201E-005   8.7053895877119256E-004   3.1261039902252048E-002
 chl2c           7  0.22768521519476725        4.3064391842467263E-002  0.22770740000000000        1.0286157997398046E-009   1.2019310369731721E-006
 chl           7   1.9820885017992352E-004   8.7053895884443367E-004  0.22768521519476725     
 chl2c           8   4.7969800906495587E-002   4.7969800906495587E-002  0.49578364999999996        1.0286157997398046E-009   5.8429239843197572E-017
 chl           8   4.1759580533602077E-005   8.7053895877119256E-004   4.7969800906495587E-002
 chl2c           9  0.28635332867041885        2.4803669054600401E-002  0.28700202499999999        8.1102084463130035E-009   5.1374519977756418E-007
 chl           9   2.4928172864944716E-004   8.7053895900878603E-004  0.28635332867041885     
 chl2c          10  0.39075508374997553        2.5387016219684602E-002  0.39094662499999999        8.1102084463130035E-009   3.2341622874822811E-006
 chl          10   3.4016752412375855E-004   8.7053895974751943E-004  0.39075508374997553     
 chl2c          11   2.1820572217820047E-002   2.1820572217820047E-002  0.49737575000000001        2.9820220950576825E-009   1.3892219016333710E-016
 chl          11   1.8995658218292676E-005   8.7053895877119256E-004   2.1820572217820047E-002
 chl2c          12   4.5290941298723353E-002   4.5290941298723353E-002  0.30768942500000002        1.0286157997398046E-009   5.7916706532364529E-017
 chl          12   3.9427528879957834E-005   8.7053895877119256E-004   4.5290941298723353E-002
 chl2c          13   3.7935816987997487E-002   3.7935816987997487E-002  0.75666275000000005        2.9820220950576825E-009   1.2622373389266702E-016
 chl          13   3.3022519032470062E-005   8.7048392928819904E-004   3.7935816987997487E-002
 chl2c          14   4.6856526101924839E-002   4.6856526101924839E-002  0.39804095000000000        1.0286157997398046E-009   7.4487100271042163E-017
 chl          14   4.0790431444404855E-005   8.7053895877119256E-004   4.6856526101924839E-002
 chl2c          15  0.25604627604061581        2.0954299823745293E-002  0.25607262500000000        2.9820220950576825E-009   3.7102144333045386E-006
 chl          15   2.2289825861244262E-004   8.7053895904771908E-004  0.25604627604061581     
 chl2c          16   3.7823443882273475E-002   3.7823443882273475E-002  0.71433214999999994        2.9820220950576825E-009   1.5771285286203902E-016
 chl          16   3.2924700057501719E-005   8.7048392949041792E-004   3.7823443882273475E-002
 chl2c          17   3.7542254757581245E-002   3.7542254757581245E-002  0.62580860000000005        2.9820220950576825E-009   1.5763465124980883E-016
 chl          17   3.2679929443309660E-005   8.7048392949041792E-004   3.7542254757581245E-002
 chl2c          18   2.5694475239060960E-002   2.5694475239060960E-002  0.47925950000000000        8.1102084463130035E-009   1.4494394079560623E-016
 chl          18   2.2368041720784318E-005   8.7053895877119256E-004   2.5694475239060960E-002
 chl2c          19  0.63321038144441433        3.7570220750293731E-002  0.63367130000000005        2.9820220950576825E-009   1.2979821894893915E-006
 chl          19   5.5119946441663595E-004   8.7048393483267993E-004  0.63321038144441433     
 chl2c          20   3.7020645196759419E-002   3.7020645196759419E-002  0.50678202500000002        2.9820220950576825E-009   1.3888249901138437E-016
 chl          20   3.2225876695659432E-005   8.7048392928819904E-004   3.7020645196759419E-002
 chl2c          21  0.71799401430264420        3.7838475073783531E-002  0.71973185000000006        2.9820220950576825E-009   4.4336733443264452E-007
 chl          21   6.2500225289432163E-004   8.7048393223912695E-004  0.71799401430264420     
 chl2c          22  0.64599253248571586        3.7613353106285476E-002  0.64616892500000001        2.9820220950576825E-009   3.5283712673267519E-006
 chl          22   5.6232612204725136E-004   8.7048393560135390E-004  0.64599253248571586     
 chl2c          23   3.2286562315070731E-002   3.2286562315070731E-002  0.41564179999999995        2.2172200961693067E-009   7.7355379480527669E-017
 chl          23   2.8106710340062899E-005   8.7053895877119256E-004   3.2286562315070731E-002
 chl2c          24   3.7348402796863071E-002   3.7348402796863071E-002  0.57597492500000003        2.9820220950576825E-009   1.1292596263762387E-016
 chl          24   3.2511184419251728E-005   8.7048392928819904E-004   3.7348402796863071E-002
 chl2c          25   4.5426679235459781E-002   4.5426679235459781E-002  0.31406487500000002        1.0286157997398046E-009   6.0955670768440118E-017
 chl          25   3.9545694042070114E-005   8.7053895877119256E-004   4.5426679235459781E-002
 chl2c          26   4.7955660680174553E-002   4.7955660680174553E-002  0.49427735000000000        1.0286157997398046E-009   5.5890903987090399E-017
 chl          26   4.1747270915703776E-005   8.7053895877119256E-004   4.7955660680174553E-002
 chl2c          27   4.5333133499525620E-002   4.5333133499525620E-002  0.30964730000000001        1.0286157997398046E-009   7.3898997256271795E-017
 chl          27   3.9464258834512499E-005   8.7053895877119256E-004   4.5333133499525620E-002
 chl2c          28   3.1209236063453518E-002   3.1209236063453518E-002  0.28776342500000002        2.2172200961693067E-009   7.3479867638084505E-017
 chl          28   2.7168855866723177E-005   8.7053895877119256E-004   3.1209236063453518E-002
 chl2c          29  0.68654489022226939        3.7743217595736761E-002  0.68676297499999994        2.9820220950576825E-009   3.2235270639849008E-006
 chl          29   5.9762629810773888E-004   8.7048393574709582E-004  0.68654489022226939     
 chl2c          30   2.5380056985171612E-002   2.5380056985171612E-002  0.38930277499999999        8.1102084463130035E-009   1.5872071040651056E-016
 chl          30   2.2094328381424828E-005   8.7053895877119256E-004   2.5380056985171612E-002
 chl2c          31  0.63541488897688658        3.7576959810037038E-002  0.63559385000000002        2.9820220950576825E-009   3.3648017458247397E-006
 chl          31   5.5311845310872839E-004   8.7048393530616229E-004  0.63541488897688658     
 chl2c          32  0.24720164816709081        2.0893126428578448E-002  0.24722667500000001        2.9820220950576825E-009   3.6410082019232549E-006
 chl          32   2.1519866546781884E-004   8.7053895903784503E-004  0.24720164816709081     
 chl2c          33  0.60309539587559435        3.7458922634011876E-002  0.60343137499999999        2.9820220950576825E-009   1.6150369677837254E-006
 chl          33   5.2498485314308996E-004   8.7048393460357825E-004  0.60309539587559435     
 chl2c          34  0.38217309975962999        2.5350269098008315E-002  0.38241020000000003        8.1102084463130035E-009   2.4995372254928963E-006
 chl          34   3.3269657269430387E-004   8.7053895971107159E-004  0.38217309975962999     
 chl2c          35   2.5740370148566064E-002   2.5740370148566064E-002  0.49574644999999995        8.1102084463130035E-009   1.1501873814756182E-016
 chl          35   2.2407995027517789E-005   8.7053895877119256E-004   2.5740370148566064E-002
 chl2c          36   3.7770393924465726E-002   3.7770393924465726E-002  0.69587337500000002        2.9820220950576825E-009   1.2028213485221693E-016
 chl          36   3.2878520921769932E-005   8.7048392949041792E-004   3.7770393924465726E-002
 chl2c          37   2.1353674699533250E-002   2.1353674699533250E-002  0.33194060000000003        2.9820220950576825E-009   1.0539901677122349E-016
 chl          37   1.8589205738870433E-005   8.7053895877119256E-004   2.1353674699533250E-002
 chl2c          38   2.1543295686358745E-002   2.1543295686358745E-002  0.38455722500000000        2.9820220950576825E-009   1.6197264309840303E-016
 chl          38   1.8754278195302664E-005   8.7053895877119256E-004   2.1543295686358745E-002
 chl2c          39   2.5670077108751441E-002   2.5670077108751441E-002  0.47091117500000002        8.1102084463130035E-009   1.3071104630112025E-016
 chl          39   2.2346802197828705E-005   8.7053895877119256E-004   2.5670077108751441E-002
 chl2c          40   3.7687445774703773E-002   3.7687445774703773E-002  0.66875547499999999        2.9820220950576825E-009   1.5801478505638978E-016
 chl          40   3.2806315890421186E-005   8.7048392949041792E-004   3.7687445774703773E-002
 chl2c          41   2.5582381488167241E-002   2.5582381488167241E-002  0.44304987499999998        8.1102084463130035E-009   9.4995781116534347E-017
 chl          41   2.2270459743596541E-005   8.7053895877119256E-004   2.5582381488167241E-002
 chl2c          42   3.7949995630725070E-002   3.7949995630725070E-002  0.76234377499999995        2.9820220950576825E-009   1.3346340674593124E-016
 chl          42   3.3034861313103545E-005   8.7048392928819904E-004   3.7949995630725070E-002
 chl2c          43   2.1185090152268007E-002   2.1185090152268007E-002  0.29539925000000000        2.9820220950576825E-009   1.6128733077207786E-016
 chl          43   1.8442446322629236E-005   8.7053895877119256E-004   2.1185090152268007E-002
 chl2c          44   3.7536352708156646E-002   3.7536352708156646E-002  0.62417262500000004        2.9820220950576825E-009   1.1413890335798326E-016
 chl          44   3.2674791796543932E-005   8.7048392928819904E-004   3.7536352708156646E-002
 chl2c          45  0.37655535990809669        4.6544927192009838E-002  0.37662252499999999        1.0286157997398046E-009   1.0859621941609402E-006
 chl          45   3.2780611097951105E-004   8.7053895889177210E-004  0.37655535990809669     
 chl2c          46  0.51864373251779161        3.7083195475449568E-002  0.51876034999999998        2.9820220950576825E-009   3.4399577561817709E-006
 chl          46   4.5147103675288833E-004   8.7048393424363039E-004  0.51864373251779161     
 chl2c          47   3.7519784612651236E-002   3.7519784612651236E-002  0.61962282499999999        2.9820220950576825E-009   1.4551369269859780E-016
 chl          47   3.2660369535667558E-005   8.7048392928819904E-004   3.7519784612651236E-002
 chl2c          48   3.7823212136301673E-002   3.7823212136301673E-002  0.71424949999999998        2.9820220950576825E-009   1.3998481810694404E-016
 chl          48   3.2924498318708975E-005   8.7048392928819904E-004   3.7823212136301673E-002
 chl2c          49   3.7152990741888416E-002   3.7152990741888416E-002  0.53276120000000005        2.9820220950576825E-009   1.3034138920383798E-016
 chl          49   3.2341081365807112E-005   8.7048392928819904E-004   3.7152990741888416E-002
 chl2c          50  0.38122008324411610        2.1533072915600981E-002  0.38132569999999999        2.9820220950576825E-009   2.0522009567920919E-006
 chl          50   3.3186693448026731E-004   8.7053895916536673E-004  0.38122008324411610     
 chl2c          51   2.0700971146093840E-002   2.0700971146093840E-002  0.22275920000000002        2.9820220950576825E-009   1.7201501956435244E-016
 chl          51   1.8021001867073034E-005   8.7053895877119256E-004   2.0700971146093840E-002
 chl2c          52   3.7581825176985564E-002   3.7581825176985564E-002  0.63698869999999996        2.9820220950576825E-009   1.5478616505424091E-016
 chl          52   3.2714374857484313E-005   8.7048392949041792E-004   3.7581825176985564E-002
 chl2c          53   3.7925801262726190E-002   3.7925801262726190E-002  0.75269794999999995        2.9820220950576825E-009   1.3873453284318520E-016
 chl          53   3.3013800512250546E-005   8.7048392949041792E-004   3.7925801262726190E-002
 chl2c          54   3.7082433371327092E-002   3.7082433371327092E-002  0.51861124999999997        2.9820220950576825E-009   1.1395668277096405E-016
 chl          54   3.2279662308640644E-005   8.7048392928819904E-004   3.7082433371327092E-002
 chl2c          55  0.57794247449537717        3.7357235588660491E-002  0.57808280000000001        2.9820220950576825E-009   3.5499228077648482E-006
 chl          55   5.0308963927893195E-004   8.7048393478641279E-004  0.57794247449537717     
 chl2c          56   3.7507394187257688E-002   3.7507394187257688E-002  0.61626080000000005        2.9820220950576825E-009   1.5519189586115029E-016
 chl          56   3.2649583877070132E-005   8.7048392949041792E-004   3.7507394187257688E-002
 chl2c          57  0.68143049425702518        3.7727617852646313E-002  0.68163462500000005        2.9820220950576825E-009   3.3927015151479727E-006
 chl          57   5.9317429856822453E-004   8.7048393573136492E-004  0.68143049425702518     
 chl2c          58  0.69353629895423097        3.7765358178394853E-002  0.69416802499999997        2.9820220950576825E-009   1.1362813537410152E-006
 chl          58   6.0371220653580003E-004   8.7048393493768849E-004  0.69353629895423097     
 chl2c          59   3.7173699120809672E-002   3.7173699120809672E-002  0.53705127500000005        2.9820220950576825E-009   1.5784305328968387E-016
 chl          59   3.2359107676859677E-005   8.7048392928819904E-004   3.7173699120809672E-002
 chl2c          60  0.64333513935067232        3.7607757740906807E-002  0.64452155000000000        2.9820220950576825E-009   5.2109936189452872E-007
 chl          60   5.6001290231830420E-004   8.7048393296771179E-004  0.64333513935067232     
 chl2c          61   3.7805373434125003E-002   3.7805373434125003E-002  0.70794139999999994        2.9820220950576825E-009   1.3580040948339162E-016
 chl          61   3.2908970015144825E-005   8.7048392928819904E-004   3.7805373434125003E-002
 chl2c          62   3.7956103087269030E-002   3.7956103087269030E-002  0.76481592499999995        2.9820220950576825E-009   1.1098047232895617E-016
 chl          62   3.3040177755873886E-005   8.7048392928819904E-004   3.7956103087269030E-002
 chl2c          63  0.72558017336097202        3.7855601011927406E-002  0.72597904999999996        2.9820220950576825E-009   1.9690273781254813E-006
 chl          63   6.3160588516335302E-004   8.7048393596214310E-004  0.72558017336097202     
 chl2c          64   2.5708982294816416E-002   2.5708982294816416E-002  0.48435739999999999        8.1102084463130035E-009   9.2447166671762359E-017
 chl          64   2.2380670677996506E-005   8.7053895877119256E-004   2.5708982294816416E-002
 chl2c          65   3.7953597170552002E-002   3.7953597170552002E-002  0.76379975000000000        2.9820220950576825E-009   1.2254649232749612E-016
 chl          65   3.3037996403318512E-005   8.7048392949041792E-004   3.7953597170552002E-002
 chl2c          66   3.1840477731474713E-002   3.1840477731474713E-002  0.35213202499999996        2.2172200961693067E-009   6.0633699106367863E-017
 chl          66   2.7718376331135340E-005   8.7053895877119256E-004   3.1840477731474713E-002
 chl2c          67   3.7937587124568600E-002   3.7937587124568600E-002  0.75736760000000003        2.9820220950576825E-009   1.2960535409237248E-016
 chl          67   3.3024059907907866E-005   8.7048392928819904E-004   3.7937587124568600E-002
 chl2c          68  0.72494605401755285        3.7855407263856986E-002  0.72590779999999999        2.9820220950576825E-009   8.1584495786331600E-007
 chl          68   6.3105389328714458E-004   8.7048393434232705E-004  0.72494605401755285     
 chl2c          69  0.45512703359090140        2.1732330561541505E-002  0.45524217500000003        2.9820220950576825E-009   2.6830232946863118E-006
 chl          69   3.9620581414902143E-004   8.7053895925056756E-004  0.45512703359090140     
 chl2c          70   3.2658010878182209E-002   3.2658010878182209E-002  0.48694062500000002        2.2172200961693067E-009   8.9014705223802027E-017
 chl          70   2.8430070785431021E-005   8.7053895877119256E-004   3.2658010878182209E-002
 chl2c          71   4.3481058864416305E-002   4.3481058864416305E-002  0.23986107500000001        1.0286157997398046E-009   6.6937103230642503E-017
 chl          71   3.7851955710097901E-005   8.7053895877119256E-004   4.3481058864416305E-002
 chl2c          72   3.7549776402781669E-002   3.7549776402781669E-002  0.62790522500000001        2.9820220950576825E-009   1.5567753951129648E-016
 chl          72   3.2686476914579956E-005   8.7048392949041792E-004   3.7549776402781669E-002
 chl2c          73   3.1852614277819484E-002   3.1852614277819484E-002  0.35362212500000001        2.2172200961693067E-009   7.4068266500143114E-017
 chl          73   2.7728941667553395E-005   8.7053895877119256E-004   3.1852614277819484E-002
 chl2c          74  0.64613535453790027        3.7616827685877569E-002  0.64719590000000005        2.9820220950576825E-009   5.8790998139852817E-007
 chl          74   5.6245044470912883E-004   8.7048393306287839E-004  0.64613535453790027     
 chl2c          75   3.7826830779512356E-002   3.7826830779512356E-002  0.71554212500000003        2.9820220950576825E-009   1.2296001805924620E-016
 chl          75   3.2927648297119003E-005   8.7048392949041792E-004   3.7826830779512356E-002
 chl2c          76  0.55499820134017674        3.7257729557919804E-002  0.55513977500000000        2.9820220950576825E-009   3.2448327963764699E-006
 chl          76   4.8311701809002875E-004   8.7048393476488108E-004  0.55499820134017674     
 chl2c          77  0.47441578424261932        3.7138172437479272E-002  0.52973029999999999        2.9820220950576825E-009   6.7741637629201476E-009
 chl          77   4.1297131598385772E-004   8.7048392928819904E-004  0.47441578424261932     
 chl2c          78  0.45112494717611035        4.7515248899399322E-002  0.45117492500000000        1.0286157997398046E-009   2.0945351446914377E-006
 chl          78   3.9272184185575770E-004   8.7053895891606896E-004  0.45112494717611035     
 prod   3.0913384830031119E-007   9.8419084726228921E-003   10.000000000000000     
 dcdom   7.6620200232680469E-013  -2.9738565427582025E-010
 chl2c           1   3.7477407714772232E-002   3.7477407714772232E-002  0.60826437499999997        3.3336502213566464E-010   1.3756929563140248E-016
 chl           1   3.2271928311694289E-005   8.6110353622387455E-004   3.7477407714772232E-002
 chl2c           2  0.48300165886849988        3.2640259920490348E-002  0.48302390000000001        2.5733124717684339E-010   1.3496553911750743E-006
 chl           2   4.1588576972775198E-004   8.6104418502831552E-004  0.48300165886849988     
 chl2c           3   3.7922212503796585E-002   3.7922212503796585E-002  0.75128689999999998        3.3336502213566464E-010   1.4830430810928370E-016
 chl           3   3.2654951288452473E-005   8.6110353622387455E-004   3.7922212503796585E-002
 chl2c           4  0.77315318236993225        3.7976509103863923E-002  0.77318742499999993        3.3336502213566464E-010   2.9098677437696623E-006
 chl           4   6.6576493938591715E-004   8.6110353622959957E-004  0.77315318236993225     
 chl2c           5  0.48485440531469887        2.5710500362372445E-002  0.48489679999999996        9.1859663855324595E-010   2.5470889065544855E-006
 chl           5   4.1748106628180511E-004   8.6104418502877273E-004  0.48485440531469887     
 chl2c           6   3.1261039902252048E-002   3.1261039902252048E-002  0.29222855000000003        2.5733124717684339E-010   9.6692279127200370E-017
 chl           6   2.6917136625766839E-005   8.6104418502814183E-004   3.1261039902252048E-002
 chl2c           7  0.22770493590023727        4.3064391842467263E-002  0.22770740000000000        1.1965979285207928E-010   1.2589531053142255E-006
 chl           7   1.9606401095911415E-004   8.6104418502818162E-004  0.22770493590023727     
 chl2c           8   4.7969800906495587E-002   4.7969800906495587E-002  0.49578364999999996        1.1965979285207928E-010   5.9536976151100254E-017
 chl           8   4.1304118127495710E-005   8.6104418502814183E-004   4.7969800906495587E-002
 chl2c           9  0.28695773422759624        2.4803669054600401E-002  0.28700202499999999        9.1859663855324595E-010   8.5405236091542978E-007
 chl           9   2.4708328840555957E-004   8.6104418502827031E-004  0.28695773422759624     
 chl2c          10  0.39092407201443274        2.5387016219684602E-002  0.39094662499999999        9.1859663855324595E-010   3.1124379094573455E-006
 chl          10   3.3660289899575580E-004   8.6104418502866854E-004  0.39092407201443274     
 chl2c          11   2.1820572217820047E-002   2.1820572217820047E-002  0.49737575000000001        3.3336502213566464E-010   1.3628108303177106E-016
 chl          11   1.8788476822140576E-005   8.6104418502814183E-004   2.1820572217820047E-002
 chl2c          12   4.5290941298723353E-002   4.5290941298723353E-002  0.30768942500000002        1.1965979285207928E-010   5.9015889785451252E-017
 chl          12   3.8997501639716663E-005   8.6104418502814183E-004   4.5290941298723353E-002
 chl2c          13   3.7935816987997487E-002   3.7935816987997487E-002  0.75666275000000005        3.3336502213566464E-010   1.2343177170567869E-016
 chl          13   3.2666666150374373E-005   8.6110353602532883E-004   3.7935816987997487E-002
 chl2c          14   4.6856526101924839E-002   4.6856526101924839E-002  0.39804095000000000        1.1965979285207928E-010   7.5826670877149502E-017
 chl          14   4.0345539330681726E-005   8.6104418502814183E-004   4.6856526101924839E-002
 chl2c          15  0.25606956736829872        2.0954299823745293E-002  0.25607262500000000        3.3336502213566464E-010   3.5745879184700000E-006
 chl          15   2.2048721194518387E-004   8.6104418502829113E-004  0.25606956736829872     
 chl2c          16   3.7823443882273475E-002   3.7823443882273475E-002  0.71433214999999994        3.3336502213566464E-010   1.5435918132391950E-016
 chl          16   3.2569901279190961E-005   8.6110353622387455E-004   3.7823443882273475E-002
 chl2c          17   3.7542254757581245E-002   3.7542254757581245E-002  0.62580860000000005        3.3336502213566464E-010   1.5428231046642899E-016
 chl          17   3.2327768329570787E-005   8.6110353622387455E-004   3.7542254757581245E-002
 chl2c          18   2.5694475239060960E-002   2.5694475239060960E-002  0.47925950000000000        9.1859663855324595E-010   1.4222765123866646E-016
 chl          18   2.2124078491943014E-005   8.6104418502814183E-004   2.5694475239060960E-002
 chl2c          19  0.63362624960002378        3.7570220750293731E-002  0.63367130000000005        3.3336502213566464E-010   1.4855544741620194E-006
 chl          19   5.4561780417759526E-004   8.6110353622820420E-004  0.63362624960002378     
 chl2c          20   3.7020645196759419E-002   3.7020645196759419E-002  0.50678202500000002        3.3336502213566464E-010   1.3585846540193793E-016
 chl          20   3.1878608484868641E-005   8.6110353602532883E-004   3.7020645196759419E-002
 chl2c          21  0.71960326315571821        3.7838475073783531E-002  0.71973185000000006        3.3336502213566464E-010   6.7136290610342373E-007
 chl          21   6.1965291444047673E-004   8.6110353602772264E-004  0.71960326315571821     
 chl2c          22  0.64614872478682928        3.7613353106285476E-002  0.64616892500000001        3.3336502213566464E-010   3.4451857479613838E-006
 chl          22   5.5640095184368370E-004   8.6110353622882371E-004  0.64614872478682928     
 chl2c          23   3.2286562315070731E-002   3.2286562315070731E-002  0.41564179999999995        2.5733124717684339E-010   7.8764569828351213E-017
 chl          23   2.7800156735940393E-005   8.6104418502814183E-004   3.2286562315070731E-002
 chl2c          24   3.7348402796863071E-002   3.7348402796863071E-002  0.57597492500000003        3.3336502213566464E-010   1.1038695501606151E-016
 chl          24   3.2160841713277071E-005   8.6110353602532883E-004   3.7348402796863071E-002
 chl2c          25   4.5426679235459781E-002   4.5426679235459781E-002  0.31406487500000002        1.1965979285207928E-010   6.2105267335567443E-017
 chl          25   3.9114378000831277E-005   8.6104418502814183E-004   4.5426679235459781E-002
 chl2c          26   4.7955660680174553E-002   4.7955660680174553E-002  0.49427735000000000        1.1965979285207928E-010   5.6956079866847905E-017
 chl          26   4.1291942767847007E-005   8.6104418502814183E-004   4.7955660680174553E-002
 chl2c          27   4.5333133499525620E-002   4.5333133499525620E-002  0.30964730000000001        1.1965979285207928E-010   7.5229175143257515E-017
 chl          27   3.9033830988870994E-005   8.6104418502814183E-004   4.5333133499525620E-002
 chl2c          28   3.1209236063453518E-002   3.1209236063453518E-002  0.28776342500000002        2.5733124717684339E-010   7.4803340322801579E-017
 chl          28   2.6872531231607230E-005   8.6104418502814183E-004   3.1209236063453518E-002
 chl2c          29  0.68673755970133998        3.7743217595736761E-002  0.68676297499999994        3.3336502213566464E-010   3.0930895313448486E-006
 chl          29   5.9135214098382158E-004   8.6110353603055989E-004  0.68673755970133998     
 chl2c          30   2.5380056985171612E-002   2.5380056985171612E-002  0.38930277499999999        9.1859663855324595E-010   1.5584376163429060E-016
 chl          30   2.1853350482764890E-005   8.6104418502814183E-004   2.5380056985171612E-002
 chl2c          31  0.63557260364000656        3.7576959810037038E-002  0.63559385000000002        3.3336502213566464E-010   3.1692051550214734E-006
 chl          31   5.4729381639833210E-004   8.6110353603020265E-004  0.63557260364000656     
 chl2c          32  0.24722386205647170        2.0893126428578448E-002  0.24722667500000001        3.3336502213566464E-010   3.6217188668371417E-006
 chl          32   2.1287066882396004E-004   8.6104418502828582E-004  0.24722386205647170     
 chl2c          33  0.60339733499651393        3.7458922634011876E-002  0.60343137499999999        3.3336502213566464E-010   1.7829194122581729E-006
 chl          33   5.1958757879635683E-004   8.6110353602963582E-004  0.60339733499651393     
 chl2c          34  0.38238119371386986        2.5350269098008315E-002  0.38241020000000003        9.1859663855324595E-010   2.3154143565883159E-006
 chl          34   3.2924710331164094E-004   8.6104418502864881E-004  0.38238119371386986     
 chl2c          35   2.5740370148566064E-002   2.5740370148566064E-002  0.49574644999999995        9.1859663855324595E-010   1.1270654036503677E-016
 chl          35   2.2163596036894778E-005   8.6104418502814183E-004   2.5740370148566064E-002
 chl2c          36   3.7770393924465726E-002   3.7770393924465726E-002  0.69587337500000002        3.3336502213566464E-010   1.1760202949129854E-016
 chl          36   3.2524219772926185E-005   8.6110353622387455E-004   3.7770393924465726E-002
 chl2c          37   2.1353674699533250E-002   2.1353674699533250E-002  0.33194060000000003        3.3336502213566464E-010   1.0323320747750449E-016
 chl          37   1.8386457429015659E-005   8.6104418502814183E-004   2.1353674699533250E-002
 chl2c          38   2.1543295686358745E-002   2.1543295686358745E-002  0.38455722500000000        3.3336502213566464E-010   1.5906004505857850E-016
 chl          38   1.8549729477081047E-005   8.6104418502814183E-004   2.1543295686358745E-002
 chl2c          39   2.5670077108751441E-002   2.5670077108751441E-002  0.47091117500000002        9.1859663855324595E-010   1.2817739341445342E-016
 chl          39   2.2103070623714445E-005   8.6104418502814183E-004   2.5670077108751441E-002
 chl2c          40   3.7687445774703773E-002   3.7687445774703773E-002  0.66875547499999999        3.3336502213566464E-010   1.5465597852259464E-016
 chl          40   3.2452792827842942E-005   8.6110353622387455E-004   3.7687445774703773E-002
 chl2c          41   2.5582381488167241E-002   2.5582381488167241E-002  0.44304987499999998        9.1859663855324595E-010   9.2997539783639890E-017
 chl          41   2.2027560819557983E-005   8.6104418502814183E-004   2.5582381488167241E-002
 chl2c          42   3.7949995630725070E-002   3.7949995630725070E-002  0.76234377499999995        3.3336502213566464E-010   1.3053768374599924E-016
 chl          42   3.2678875429763140E-005   8.6110353602532883E-004   3.7949995630725070E-002
 chl2c          43   2.1185090152268007E-002   2.1185090152268007E-002  0.29539925000000000        3.3336502213566464E-010   1.5838217392762327E-016
 chl          43   1.8241298684907320E-005   8.6104418502814183E-004   2.1185090152268007E-002
 chl2c          44   3.7536352708156646E-002   3.7536352708156646E-002  0.62417262500000004        3.3336502213566464E-010   1.1157643108776475E-016
 chl          44   3.2322686046487618E-005   8.6110353602532883E-004   3.7536352708156646E-002
 chl2c          45  0.37661280714776940        4.6544927192009838E-002  0.37662252499999999        1.1965979285207928E-010   8.7327159776455773E-007
 chl          45   3.2428026760173648E-004   8.6104418502820721E-004  0.37661280714776940     
 chl2c          46  0.51874669515229677        3.7083195475449568E-002  0.51876034999999998        3.3336502213566464E-010   3.2849237361765596E-006
 chl          46   4.4669461349917765E-004   8.6110353602934157E-004  0.51874669515229677     
 chl2c          47   3.7519784612651236E-002   3.7519784612651236E-002  0.61962282499999999        3.3336502213566464E-010   1.4237146087797514E-016
 chl          47   3.2308419200862699E-005   8.6110353602532883E-004   3.7519784612651236E-002
 chl2c          48   3.7823212136301673E-002   3.7823212136301673E-002  0.71424949999999998        3.3336502213566464E-010   1.3694097608727346E-016
 chl          48   3.2569701714405501E-005   8.6110353602532883E-004   3.7823212136301673E-002
 chl2c          49   3.7152990741888416E-002   3.7152990741888416E-002  0.53276120000000005        3.3336502213566464E-010   1.2747300839483365E-016
 chl          49   3.1992571701756419E-005   8.6110353602532883E-004   3.7152990741888416E-002
 chl2c          50  0.38131488887433762        2.1533072915600981E-002  0.38132569999999999        3.3336502213566464E-010   2.2418108068849219E-006
 chl          50   3.2832896772998156E-004   8.6104418502835445E-004  0.38131488887433762     
 chl2c          51   2.0700971146093840E-002   2.0700971146093840E-002  0.22275920000000002        3.3336502213566464E-010   1.6899772708553433E-016
 chl          51   1.7824450829779450E-005   8.6104418502814183E-004   2.0700971146093840E-002
 chl2c          52   3.7581825176985564E-002   3.7581825176985564E-002  0.63698869999999996        3.3336502213566464E-010   1.5148251325460089E-016
 chl          52   3.2361842557649712E-005   8.6110353622387455E-004   3.7581825176985564E-002
 chl2c          53   3.7925801262726190E-002   3.7925801262726190E-002  0.75269794999999995        3.3336502213566464E-010   1.3571316301663126E-016
 chl          53   3.2658041581457412E-005   8.6110353622387455E-004   3.7925801262726190E-002
 chl2c          54   3.7082433371327092E-002   3.7082433371327092E-002  0.51861124999999997        3.3336502213566464E-010   1.1139773057106598E-016
 chl          54   3.1931814500473418E-005   8.6110353602532883E-004   3.7082433371327092E-002
 chl2c          55  0.57806664731167312        3.7357235588660491E-002  0.57808280000000001        3.3336502213566464E-010   3.4483646280287948E-006
 chl          55   4.9777523406096223E-004   8.6110353602978143E-004  0.57806664731167312     
 chl2c          56   3.7507394187257688E-002   3.7507394187257688E-002  0.61626080000000005        3.3336502213566464E-010   1.5188128319194873E-016
 chl          56   3.2297749769190391E-005   8.6110353622387455E-004   3.7507394187257688E-002
 chl2c          57  0.68160979880080586        3.7727617852646313E-002  0.68163462500000005        3.3336502213566464E-010   3.1193727015429423E-006
 chl          57   5.8693660794044357E-004   8.6110353603054688E-004  0.68160979880080586     
 chl2c          58  0.69411122315706208        3.7765358178394853E-002  0.69416802499999997        3.3336502213566464E-010   1.4139084162762886E-006
 chl          58   5.9770162879629028E-004   8.6110353622829050E-004  0.69411122315706208     
 chl2c          59   3.7173699120809672E-002   3.7173699120809672E-002  0.53705127500000005        3.3336502213566464E-010   1.5448716683805894E-016
 chl          59   3.2010403760070869E-005   8.6110353602532883E-004   3.7173699120809672E-002
 chl2c          60  0.64442584512791956        3.7607757740906807E-002  0.64452155000000000        3.3336502213566464E-010   7.2337980469992581E-007
 chl          60   5.5491737394768557E-004   8.6110353602831299E-004  0.64442584512791956     
 chl2c          61   3.7805373434125003E-002   3.7805373434125003E-002  0.70794139999999994        3.3336502213566464E-010   1.3283209977190834E-016
 chl          61   3.2554340744883068E-005   8.6110353602532883E-004   3.7805373434125003E-002
 chl2c          62   3.7956103087269030E-002   3.7956103087269030E-002  0.76481592499999995        3.3336502213566464E-010   1.0847926551069467E-016
 chl          62   3.2684134582189259E-005   8.6110353602532883E-004   3.7956103087269030E-002
 chl2c          63  0.72593644005439883        3.7855601011927406E-002  0.72597904999999996        3.3336502213566464E-010   2.0615873479969508E-006
 chl          63   6.2510643560842016E-004   8.6110353622911818E-004  0.72593644005439883     
 chl2c          64   2.5708982294816416E-002   2.5708982294816416E-002  0.48435739999999999        9.1859663855324595E-010   9.0491459244422480E-017
 chl          64   2.2136569707943130E-005   8.6104418502814183E-004   2.5708982294816416E-002
 chl2c          65   3.7953597170552002E-002   3.7953597170552002E-002  0.76379975000000000        3.3336502213566464E-010   1.1982353640633795E-016
 chl          65   3.2681976735978767E-005   8.6110353622387455E-004   3.7953597170552002E-002
 chl2c          66   3.1840477731474713E-002   3.1840477731474713E-002  0.35213202499999996        2.5733124717684339E-010   6.1777988707858725E-017
 chl          66   2.7416058199204343E-005   8.6104418502814183E-004   3.1840477731474713E-002
 chl2c          67   3.7937587124568600E-002   3.7937587124568600E-002  0.75736760000000003        3.3336502213566464E-010   1.2675056720775515E-016
 chl          67   3.2668190421235007E-005   8.6110353602532883E-004   3.7937587124568600E-002
 chl2c          68  0.72582829013623351        3.7855407263856986E-002  0.72590779999999999        3.3336502213566464E-010   1.1045474555350426E-006
 chl          68   6.2501330733049482E-004   8.6110353622780901E-004  0.72582829013623351     
 chl2c          69  0.45522878494967289        2.1732330561541505E-002  0.45524217500000003        3.3336502213566464E-010   2.5797643103082295E-006
 chl          69   3.9197209813846007E-004   8.6104418502840042E-004  0.45522878494967289     
 chl2c          70   3.2658010878182209E-002   3.2658010878182209E-002  0.48694062500000002        2.5733124717684339E-010   9.0580511395520879E-017
 chl          70   2.8119990361244591E-005   8.6104418502814183E-004   3.2658010878182209E-002
 chl2c          71   4.3481058864416305E-002   4.3481058864416305E-002  0.23986107500000001        1.1965979285207928E-010   6.8183815849338048E-017
 chl          71   3.7439112894071999E-005   8.6104418502814183E-004   4.3481058864416305E-002
 chl2c          72   3.7549776402781669E-002   3.7549776402781669E-002  0.62790522500000001        3.3336502213566464E-010   1.5235860620626035E-016
 chl          72   3.2334245244851092E-005   8.6110353622387455E-004   3.7549776402781669E-002
 chl2c          73   3.1852614277819484E-002   3.1852614277819484E-002  0.35362212500000001        2.5733124717684339E-010   7.5427108302249135E-017
 chl          73   2.7426508301860832E-005   8.6104418502814183E-004   3.1852614277819484E-002
 chl2c          74  0.64711199459713020        3.7616827685877569E-002  0.64719590000000005        3.3336502213566464E-010   8.3198465178618798E-007
 chl          74   5.5723042675397334E-004   8.6110353602839018E-004  0.64711199459713020     
 chl2c          75   3.7826830779512356E-002   3.7826830779512356E-002  0.71554212500000003        3.3336502213566464E-010   1.2022926610506206E-016
 chl          75   3.2572817748380193E-005   8.6110353622387455E-004   3.7826830779512356E-002
 chl2c          76  0.55512329998256160        3.7257729557919804E-002  0.55513977500000000        3.3336502213566464E-010   3.1178552790975472E-006
 chl          76   4.7801863665762173E-004   8.6110353622814609E-004  0.55512329998256160     
 chl2c          77  0.52940950903290795        3.7138172437479272E-002  0.52973029999999999        3.3336502213566464E-010   1.4571842084234697E-007
 chl          77   4.5587640023367029E-004   8.6110353602532883E-004  0.52940950903290795     
 chl2c          78  0.45116884374311039        4.7515248899399322E-002  0.45117492500000000        1.1965979285207928E-010   2.0026679945516739E-006
 chl          78   3.8847630937091090E-004   8.6104418502822022E-004  0.45116884374311039     
 prod   3.1570436452114285E-007   1.1357649200434436E-003   10.000000000000000     
 dcdom   8.5662448865230773E-013  -2.9495035762035337E-010
 chl2c           1   3.7477407714772232E-002   3.7477407714772232E-002  0.60826437499999997        3.8196226125619997E-011   1.3369988571971989E-016
 chl           1   3.1910974782835577E-005   8.5147230634784350E-004   3.7477407714772232E-002
 chl2c           2  0.48302123955689996        3.2640259920490348E-002  0.48302390000000001        3.0210064686816337E-011   1.3246542367743114E-006
 chl           2   4.1125000917254363E-004   8.5141185416567661E-004  0.48302123955689996     
 chl2c           3   3.7922212503796585E-002   3.7922212503796585E-002  0.75128689999999998        3.8196226125619997E-011   1.4418499257716731E-016
 chl           3   3.2289713742420705E-005   8.5147230634784350E-004   3.7922212503796585E-002
 chl2c           4  0.77318360114492268        3.7976509103863923E-002  0.77318742499999993        3.8196226125619997E-011   2.9857707017711597E-006
 chl           4   6.5834442409720131E-004   8.5147230634784719E-004  0.77318360114492268     
 chl2c           5  0.48489161947617065        2.5710500362372445E-002  0.48489679999999996        1.0555801621786314E-010   2.3954193015430828E-006
 chl           5   4.1284247280760428E-004   8.5141185416567683E-004  0.48489161947617065     
 chl2c           6   3.1261039902252048E-002   3.1261039902252048E-002  0.29222855000000003        3.0210064686816337E-011   9.8375133998292130E-017
 chl           6   2.6616019946323612E-005   8.5141185416567639E-004   3.1261039902252048E-002
 chl2c           7  0.22770711812813121        4.3064391842467263E-002  0.22770740000000000        1.4091338818071047E-011   1.2960575259522380E-006
 chl           7   1.9387253965219494E-004   8.5141185416567650E-004  0.22770711812813121     
 chl2c           8   4.7969800906495587E-002   4.7969800906495587E-002  0.49578364999999996        1.4091338818071047E-011   6.0666830645419700E-017
 chl           8   4.0842057133757753E-005   8.5141185416567639E-004   4.7969800906495587E-002
 chl2c           9  0.28699851607750321        2.4803669054600401E-002  0.28700202499999999        1.0555801621786314E-010   1.2389450946256986E-006
 chl           9   2.4435393871634472E-004   8.5141185416567650E-004  0.28699851607750321     
 chl2c          10  0.39094390492863390        2.5387016219684602E-002  0.39094662499999999        1.0555801621786314E-010   2.9656018250323348E-006
 chl          10   3.3285427497005822E-004   8.5141185416567672E-004  0.39094390492863390     
 chl2c          11   2.1820572217820047E-002   2.1820572217820047E-002  0.49737575000000001        3.8196226125619997E-011   1.3288803716679586E-016
 chl          11   1.8578293850930212E-005   8.5141185416567639E-004   2.1820572217820047E-002
 chl2c          12   4.5290941298723353E-002   4.5290941298723353E-002  0.30768942500000002        1.4091338818071047E-011   6.0137065109039892E-017
 chl          12   3.8561244308054858E-005   8.5141185416567639E-004   4.5290941298723353E-002
 chl2c          13   3.7935816987997487E-002   3.7935816987997487E-002  0.75666275000000005        3.8196226125619997E-011   1.1990265151258241E-016
 chl          13   3.2301297576568734E-005   8.5147230615300945E-004   3.7935816987997487E-002
 chl2c          14   4.6856526101924839E-002   4.6856526101924839E-002  0.39804095000000000        1.4091338818071047E-011   7.7189347032017485E-017
 chl          14   3.9894201768202238E-005   8.5141185416567639E-004   4.6856526101924839E-002
 chl2c          15  0.25607225827560021        2.0954299823745293E-002  0.25607262500000000        3.8196226125619997E-011   3.4148870102727088E-006
 chl          15   2.1802295621882077E-004   8.5141185416567650E-004  0.25607225827560021     
 chl2c          16   3.7823443882273475E-002   3.7823443882273475E-002  0.71433214999999994        3.8196226125619997E-011   1.5010211811692505E-016
 chl          16   3.2205614996457630E-005   8.5147230634784350E-004   3.7823443882273475E-002
 chl2c          17   3.7542254757581245E-002   3.7542254757581245E-002  0.62580860000000005        3.8196226125619997E-011   1.5002698162720737E-016
 chl          17   3.1966190243936000E-005   8.5147230634784350E-004   3.7542254757581245E-002
 chl2c          18   2.5694475239060960E-002   2.5694475239060960E-002  0.47925950000000000        1.0555801621786314E-010   1.3873262379485528E-016
 chl          18   2.1876580805102951E-005   8.5141185416567639E-004   2.5694475239060960E-002
 chl2c          19  0.63366665671650690        3.7570220750293731E-002  0.63367130000000005        3.8196226125619997E-011   1.6515440169212277E-006
 chl          19   5.3954960965013317E-004   8.5147230634784632E-004  0.63366665671650690     
 chl2c          20   3.7020645196759419E-002   3.7020645196759419E-002  0.50678202500000002        3.8196226125619997E-011   1.3202955742684035E-016
 chl          20   3.1522054140957072E-005   8.5147230615300945E-004   3.7020645196759419E-002
 chl2c          21  0.71972120922938598        3.7838475073783531E-002  0.71973185000000006        3.8196226125619997E-011   9.2972048847584973E-007
 chl          21   6.1282267780977907E-004   8.5147230615301107E-004  0.71972120922938598     
 chl2c          22  0.64616652146810272        3.7613353106285476E-002  0.64616892500000001        3.8196226125619997E-011   3.3176540023506079E-006
 chl          22   5.5019289831921092E-004   8.5147230634784687E-004  0.64616652146810272     
 chl2c          23   3.2286562315070731E-002   3.2286562315070731E-002  0.41564179999999995        3.0210064686816337E-011   8.0199786285901433E-017
 chl          23   2.7489161885310025E-005   8.5141185416567639E-004   3.2286562315070731E-002
 chl2c          24   3.7348402796863071E-002   3.7348402796863071E-002  0.57597492500000003        3.8196226125619997E-011   1.0718319439189414E-016
 chl          24   3.1801130660576504E-005   8.5147230615300945E-004   3.7348402796863071E-002
 chl2c          25   4.5426679235459781E-002   4.5426679235459781E-002  0.31406487500000002        1.4091338818071047E-011   6.3277587712869313E-017
 chl          25   3.8676813196452241E-005   8.5141185416567639E-004   4.5426679235459781E-002
 chl2c          26   4.7955660680174553E-002   4.7955660680174553E-002  0.49427735000000000        1.4091338818071047E-011   5.8042738513645368E-017
 chl          26   4.0830017977447439E-005   8.5141185416567639E-004   4.7955660680174553E-002
 chl2c          27   4.5333133499525620E-002   4.5333133499525620E-002  0.30964730000000001        1.4091338818071047E-011   7.6582344154204416E-017
 chl          27   3.8597167247971247E-005   8.5141185416567639E-004   4.5333133499525620E-002
 chl2c          28   3.1209236063453518E-002   3.1209236063453518E-002  0.28776342500000002        3.0210064686816337E-011   7.6149721992130144E-017
 chl          28   2.6571913543879253E-005   8.5141185416567639E-004   3.1209236063453518E-002
 chl2c          29  0.68675990900399453        3.7743217595736761E-002  0.68676297499999994        3.8196226125619997E-011   2.9378572054522444E-006
 chl          29   5.8475704349306450E-004   8.5147230615301292E-004  0.68675990900399453     
 chl2c          30   2.5380056985171612E-002   2.5380056985171612E-002  0.38930277499999999        1.0555801621786314E-010   1.5212869703247168E-016
 chl          30   2.1608881376575490E-005   8.5141185416567639E-004   2.5380056985171612E-002
 chl2c          31  0.63559120752637854        3.7576959810037038E-002  0.63559385000000002        3.8196226125619997E-011   2.9196941957559282E-006
 chl          31   5.4118831124306350E-004   8.5147230615301259E-004  0.63559120752637854     
 chl2c          32  0.24722634445711272        2.0893126428578448E-002  0.24722667500000001        3.8196226125619997E-011   3.5314472141447966E-006
 chl          32   2.1049144033283258E-004   8.5141185416567650E-004  0.24722634445711272     
 chl2c          33  0.60342774947862610        3.7458922634011876E-002  0.60343137499999999        3.8196226125619997E-011   1.9181084363963233E-006
 chl          33   5.1380201744528789E-004   8.5147230615301227E-004  0.60342774947862610     
 chl2c          34  0.38240645822376146        2.5350269098008315E-002  0.38241020000000003        1.0555801621786314E-010   2.0627096352166072E-006
 chl          34   3.2558539164122215E-004   8.5141185416567672E-004  0.38240645822376146     
 chl2c          35   2.5740370148566064E-002   2.5740370148566064E-002  0.49574644999999995        1.0555801621786314E-010   1.0975378541118516E-016
 chl          35   2.1915656275101458E-005   8.5141185416567639E-004   2.5740370148566064E-002
 chl2c          36   3.7770393924465726E-002   3.7770393924465726E-002  0.69587337500000002        3.8196226125619997E-011   1.1421695763002539E-016
 chl          36   3.2160444426531408E-005   8.5147230634784350E-004   3.7770393924465726E-002
 chl2c          37   2.1353674699533250E-002   2.1353674699533250E-002  0.33194060000000003        3.8196226125619997E-011   1.0047388813167947E-016
 chl          37   1.8180771769180297E-005   8.5141185416567639E-004   2.1353674699533250E-002
 chl2c          38   2.1543295686358745E-002   2.1543295686358745E-002  0.38455722500000000        3.8196226125619997E-011   1.5529571055812566E-016
 chl          38   1.8342217325162117E-005   8.5141185416567639E-004   2.1543295686358745E-002
 chl2c          39   2.5670077108751441E-002   2.5670077108751441E-002  0.47091117500000002        1.0555801621786314E-010   1.2492916620567067E-016
 chl          39   2.1855807947737949E-005   8.5141185416567639E-004   2.5670077108751441E-002
 chl2c          40   3.7687445774703773E-002   3.7687445774703773E-002  0.66875547499999999        3.8196226125619997E-011   1.5039222242664492E-016
 chl          40   3.2089816374146314E-005   8.5147230634784350E-004   3.7687445774703773E-002
 chl2c          41   2.5582381488167241E-002   2.5582381488167241E-002  0.44304987499999998        1.0555801621786314E-010   9.0458077555505605E-017
 chl          41   2.1781142856814147E-005   8.5141185416567639E-004   2.5582381488167241E-002
 chl2c          42   3.7949995630725070E-002   3.7949995630725070E-002  0.76234377499999995        3.8196226125619997E-011   1.2683592973829628E-016
 chl          42   3.2313370298190108E-005   8.5147230615300945E-004   3.7949995630725070E-002
 chl2c          43   2.1185090152268007E-002   2.1185090152268007E-002  0.29539925000000000        3.8196226125619997E-011   1.5462813842708319E-016
 chl          43   1.8037236887209515E-005   8.5141185416567639E-004   2.1185090152268007E-002
 chl2c          44   3.7536352708156646E-002   3.7536352708156646E-002  0.62417262500000004        3.8196226125619997E-011   1.0834254796308682E-016
 chl          44   3.1961164804986899E-005   8.5147230615300945E-004   3.7536352708156646E-002
 chl2c          45  0.37662090533591741        4.6544927192009838E-002  0.37662252499999999        1.4091338818071047E-011   6.1703247787948357E-007
 chl          45   3.2065950332960916E-004   8.5141185416567650E-004  0.37662090533591741     
 chl2c          46  0.51875868753499188        3.7083195475449568E-002  0.51876034999999998        3.8196226125619997E-011   3.0915060770465719E-006
 chl          46   4.4170865601232939E-004   8.5147230615301216E-004  0.51875868753499188     
 chl2c          47   3.7519784612651236E-002   3.7519784612651236E-002  0.61962282499999999        3.8196226125619997E-011   1.3838935768484871E-016
 chl          47   3.1947057530498348E-005   8.5147230615300945E-004   3.7519784612651236E-002
 chl2c          48   3.7823212136301673E-002   3.7823212136301673E-002  0.71424949999999998        3.8196226125619997E-011   1.3308641930663171E-016
 chl          48   3.2205417663811279E-005   8.5147230615300945E-004   3.7823212136301673E-002
 chl2c          49   3.7152990741888416E-002   3.7152990741888416E-002  0.53276120000000005        3.8196226125619997E-011   1.2384531257138842E-016
 chl          49   3.1634742707477139E-005   8.5147230615300945E-004   3.7152990741888416E-002
 chl2c          50  0.38132452363589348        2.1533072915600981E-002  0.38132569999999999        3.8196226125619997E-011   2.3606929763609551E-006
 chl          50   3.2466421970767947E-004   8.5141185416567661E-004  0.38132452363589348     
 chl2c          51   2.0700971146093840E-002   2.0700971146093840E-002  0.22275920000000002        3.8196226125619997E-011   1.6508759533112220E-016
 chl          51   1.7625052226525925E-005   8.5141185416567639E-004   2.0700971146093840E-002
 chl2c          52   3.7581825176985564E-002   3.7581825176985564E-002  0.63698869999999996        3.8196226125619997E-011   1.4729060651820562E-016
 chl          52   3.1999883360209352E-005   8.5147230634784350E-004   3.7581825176985564E-002
 chl2c          53   3.7925801262726190E-002   3.7925801262726190E-002  0.75269794999999995        3.8196226125619997E-011   1.3188770348007175E-016
 chl          53   3.2292769471263421E-005   8.5147230634784350E-004   3.7925801262726190E-002
 chl2c          54   3.7082433371327092E-002   3.7082433371327092E-002  0.51861124999999997        3.8196226125619997E-011   1.0816836704568565E-016
 chl          54   3.1574665060449196E-005   8.5147230615300945E-004   3.7082433371327092E-002
 chl2c          55  0.57808087005213515        3.7357235588660491E-002  0.57808280000000001        3.8196226125619997E-011   3.3069187797681815E-006
 chl          55   4.9221985156623150E-004   8.5147230615301248E-004  0.57808087005213515     
 chl2c          56   3.7507394187257688E-002   3.7507394187257688E-002  0.61626080000000005        3.8196226125619997E-011   1.4768031329112702E-016
 chl          56   3.1936507433722002E-005   8.5147230634784350E-004   3.7507394187257688E-002
 chl2c          57  0.68163142807897570        3.7727617852646313E-002  0.68163462500000005        3.8196226125619997E-011   2.7756186811520238E-006
 chl          57   5.8039028401277702E-004   8.5147230615301292E-004  0.68163142807897570     
 chl2c          58  0.69416258531665476        3.7765358178394853E-002  0.69416802499999997        3.8196226125619997E-011   1.6917751751448531E-006
 chl          58   5.9106021749995568E-004   8.5147230634784632E-004  0.69416258531665476     
 chl2c          59   3.7173699120809672E-002   3.7173699120809672E-002  0.53705127500000005        3.8196226125619997E-011   1.5022721683177815E-016
 chl          59   3.1652375318633914E-005   8.5147230615300945E-004   3.7173699120809672E-002
 chl2c          60  0.64451313879039351        3.7607757740906807E-002  0.64452155000000000        3.8196226125619997E-011   9.4319441913858931E-007
 chl          60   5.4878508863177226E-004   8.5147230615301140E-004  0.64451313879039351     
 chl2c          61   3.7805373434125003E-002   3.7805373434125003E-002  0.70794139999999994        3.8196226125619997E-011   1.2907529348751191E-016
 chl          61   3.2190228502930134E-005   8.5147230615300945E-004   3.7805373434125003E-002
 chl2c          62   3.7956103087269030E-002   3.7956103087269030E-002  0.76481592499999995        3.8196226125619997E-011   1.0532400683671982E-016
 chl          62   3.2318570628298321E-005   8.5147230615300945E-004   3.7956103087269030E-002
 chl2c          63  0.72597428454823520        3.7855601011927406E-002  0.72597904999999996        3.8196226125619997E-011   2.1121838013988050E-006
 chl          63   6.1814699841351395E-004   8.5147230634784697E-004  0.72597428454823520     
 chl2c          64   2.5708982294816416E-002   2.5708982294816416E-002  0.48435739999999999        1.0555801621786314E-010   8.8007562062532533E-017
 chl          64   2.1888932284342192E-005   8.5141185416567639E-004   2.5708982294816416E-002
 chl2c          65   3.7953597170552002E-002   3.7953597170552002E-002  0.76379975000000000        3.8196226125619997E-011   1.1638331516801808E-016
 chl          65   3.2316436917006901E-005   8.5147230634784350E-004   3.7953597170552002E-002
 chl2c          66   3.1840477731474713E-002   3.1840477731474713E-002  0.35213202499999996        3.0210064686816337E-011   6.2944926414594096E-017
 chl          66   2.7109360182875815E-005   8.5141185416567639E-004   3.1840477731474713E-002
 chl2c          67   3.7937587124568600E-002   3.7937587124568600E-002  0.75736760000000003        3.8196226125619997E-011   1.2314041671164504E-016
 chl          67   3.2302804798837141E-005   8.5147230615300945E-004   3.7937587124568600E-002
 chl2c          68  0.72590068446208844        3.7855407263856986E-002  0.72590779999999999        3.8196226125619997E-011   1.4142995138017980E-006
 chl          68   6.1808432997841447E-004   8.5147230634784600E-004  0.72590068446208844     
 chl2c          69  0.45524056449333272        2.1732330561541505E-002  0.45524217500000003        3.8196226125619997E-011   2.4576010039929118E-006
 chl          69   3.8759721310669770E-004   8.5141185416567661E-004  0.45524056449333272     
 chl2c          70   3.2658010878182209E-002   3.2658010878182209E-002  0.48694062500000002        3.0210064686816337E-011   9.2171949604775555E-017
 chl          70   2.7805417595155943E-005   8.5141185416567639E-004   3.2658010878182209E-002
 chl2c          71   4.3481058864416305E-002   4.3481058864416305E-002  0.23986107500000001        1.4091338818071047E-011   6.9454581288086427E-017
 chl          71   3.7020288948839608E-005   8.5141185416567639E-004   4.3481058864416305E-002
 chl2c          72   3.7549776402781669E-002   3.7549776402781669E-002  0.62790522500000001        3.8196226125619997E-011   1.4814680094256100E-016
 chl          72   3.1972594716522337E-005   8.5147230634784350E-004   3.7549776402781669E-002
 chl2c          73   3.1852614277819484E-002   3.1852614277819484E-002  0.35362212500000001        3.0210064686816337E-011   7.6811399482657873E-017
 chl          73   2.7119693382302383E-005   8.5141185416567639E-004   3.1852614277819484E-002
 chl2c          74  0.64718863023733819        3.7616827685877569E-002  0.64719590000000005        3.8196226125619997E-011   1.1003652428151335E-006
 chl          74   5.5106319550419494E-004   8.5147230615301151E-004  0.64718863023733819     
 chl2c          75   3.7826830779512356E-002   3.7826830779512356E-002  0.71554212500000003        3.8196226125619997E-011   1.1677900683576130E-016
 chl          75   3.2208498845660980E-005   8.5147230634784350E-004   3.7826830779512356E-002
 chl2c          76  0.55513779124000762        3.7257729557919804E-002  0.55513977500000000        3.8196226125619997E-011   2.9669106730524114E-006
 chl          76   4.7268445544797845E-004   8.5147230634784622E-004  0.55513779124000762     
 chl2c          77  0.52971381824199815        3.7138172437479272E-002  0.52973029999999999        3.8196226125619997E-011   3.2514946510529629E-007
 chl          77   4.5103664641963026E-004   8.5147230615300945E-004  0.52971381824199815     
 chl2c          78  0.45117414829998476        4.7515248899399322E-002  0.45117492500000000        1.4091338818071047E-011   1.8465374070724866E-006
 chl          78   3.8413501815570992E-004   8.5141185416567650E-004  0.45117414829998476     
 prod   3.2243664784710974E-007   1.3306681275820169E-004   10.000000000000000     
 dcdom   9.5128737733606991E-013  -2.9401579738965879E-010
 chl2c           1   3.7477407714772232E-002   3.7477407714772232E-002  0.60826437499999997        4.5543427119624640E-012   1.3861725174131894E-016
 chl           1   2.8671370547933046E-005   7.6503078244207997E-004   3.7477407714772232E-002
 chl2c           2  0.48302361304914465        3.2640259920490348E-002  0.48302390000000001        3.6592326195693871E-012   1.4876113448449224E-006
 chl           2   3.6926490489043651E-004   7.6448623817665427E-004  0.48302361304914465     
 chl2c           3   3.7922212503796585E-002   3.7922212503796585E-002  0.75128689999999998        4.5543427119624640E-012   1.4950540467847383E-016
 chl           3   2.9011659903714329E-005   7.6503078244207997E-004   3.7922212503796585E-002
 chl2c           4  0.77318699969341798        3.7976509103863923E-002  0.77318742499999993        4.5543427119624640E-012   3.2008323953582337E-006
 chl           4   5.9151185534949975E-004   7.6503078244207997E-004  0.77318699969341798     
 chl2c           5  0.48489617633104309        2.5710500362372445E-002  0.48489679999999996        1.2564192574047397E-011   2.3683644777837260E-006
 chl           5   3.7069645374956277E-004   7.6448623817665427E-004  0.48489617633104309     
 chl2c           6   3.1261039902252048E-002   3.1261039902252048E-002  0.29222855000000003        3.6592326195693871E-012   1.1877982586681970E-016
 chl           6   2.3898634796362953E-005   7.6448623817665427E-004   3.1261039902252048E-002
 chl2c           7  0.22770737094266524        4.3064391842467263E-002  0.22770740000000000        1.7120195054463663E-012   1.5274857560177923E-006
 chl           7   1.7407915141705416E-004   7.6448623817665427E-004  0.22770737094266524     
 chl2c           8  0.49577921798978808        4.7969800906495587E-002  0.49578364999999996        1.7120195054463663E-012   4.7474290057370248E-008
 chl           8   3.7901638932717654E-004   7.6448623817665427E-004  0.49577921798978808     
 chl2c           9  0.28700171816992737        2.4803669054600401E-002  0.28700202499999999        1.2564192574047397E-011   1.6864603050288825E-006
 chl           9   2.1940886387396410E-004   7.6448623817665427E-004  0.28700171816992737     
 chl2c          10  0.39094630447653450        2.5387016219684602E-002  0.39094662499999999        1.2564192574047397E-011   2.9955690817276366E-006
 chl          10   2.9887306963833076E-004   7.6448623817665427E-004  0.39094630447653450     
 chl2c          11   2.1820572217820047E-002   2.1820572217820047E-002  0.49737575000000001        4.5543427119624640E-012   1.3790979340619792E-016
 chl          11   1.6681527169663261E-005   7.6448623817665427E-004   2.1820572217820047E-002
 chl2c          12   4.5290941298723353E-002   4.5290941298723353E-002  0.30768942500000002        1.7120195054463663E-012   7.1152036428009642E-017
 chl          12   3.4624301336940690E-005   7.6448623817665427E-004   4.5290941298723353E-002
 chl2c          13   3.7935816987997487E-002   3.7935816987997487E-002  0.75666275000000005        4.5543427119624640E-012   1.2429294747247759E-016
 chl          13   2.9022067746767666E-005   7.6503078228023819E-004   3.7935816987997487E-002
 chl2c          14   4.6856526101924839E-002   4.6856526101924839E-002  0.39804095000000000        1.7120195054463663E-012   9.3669042504874952E-017
 chl          14   3.5821169373686729E-005   7.6448623817665427E-004   4.6856526101924839E-002
 chl2c          15  0.25607258191338411        2.0954299823745293E-002  0.25607262500000000        4.5543427119624640E-012   3.4656089823988925E-006
 chl          15   1.9576396484714616E-004   7.6448623817665427E-004  0.25607258191338411     
 chl2c          16   3.7823443882273475E-002   3.7823443882273475E-002  0.71433214999999994        4.5543427119624640E-012   1.5565089421293879E-016
 chl          16   2.8936098867909779E-005   7.6503078244207997E-004   3.7823443882273475E-002
 chl2c          17   3.7542254757581245E-002   3.7542254757581245E-002  0.62580860000000005        4.5543427119624640E-012   1.5557285391527539E-016
 chl          17   2.8720980531832279E-005   7.6503078244207997E-004   3.7542254757581245E-002
 chl2c          18   2.5694475239060960E-002   2.5694475239060960E-002  0.47925950000000000        1.2564192574047397E-011   1.4398738462971764E-016
 chl          18   1.9643072717432903E-005   7.6448623817665427E-004   2.5694475239060960E-002
 chl2c          19  0.63367081610972364        3.7570220750293731E-002  0.63367130000000005        4.5543427119624640E-012   1.8896290670593098E-006
 chl          19   4.8477768025913324E-004   7.6503078244207997E-004  0.63367081610972364     
 chl2c          20   3.7020645196759419E-002   3.7020645196759419E-002  0.50678202500000002        4.5543427119624640E-012   1.3688291222177555E-016
 chl          20   2.8321933155396001E-005   7.6503078228023819E-004   3.7020645196759419E-002
 chl2c          21  0.71973090807540385        3.7838475073783531E-002  0.71973185000000006        4.5543427119624640E-012   1.2523348024947427E-006
 chl          21   5.5061629963619246E-004   7.6503078228023819E-004  0.71973090807540385     
 chl2c          22  0.64616864448900757        3.7613353106285476E-002  0.64616892500000001        4.5543427119624640E-012   3.3895166842131989E-006
 chl          22   4.9433890368296362E-004   7.6503078244207997E-004  0.64616864448900757     
 chl2c          23   3.2286562315070731E-002   3.2286562315070731E-002  0.41564179999999995        3.6592326195693871E-012   9.4184644519911319E-017
 chl          23   2.4682632567904553E-005   7.6448623817665427E-004   3.2286562315070731E-002
 chl2c          24   3.7348402796863071E-002   3.7348402796863071E-002  0.57597492500000003        4.5543427119624640E-012   1.1109109138692919E-016
 chl          24   2.8572677808601591E-005   7.6503078228023819E-004   3.7348402796863071E-002
 chl2c          25   4.5426679235459781E-002   4.5426679235459781E-002  0.31406487500000002        1.7120195054463663E-012   7.4780183856176520E-017
 chl          25   3.4728071121574183E-005   7.6448623817665427E-004   4.5426679235459781E-002
 chl2c          26   4.7955660680174553E-002   4.7955660680174553E-002  0.49427735000000000        1.7120195054463663E-012   6.8727798000479415E-017
 chl          26   3.6661442632662735E-005   7.6448623817665427E-004   4.7955660680174553E-002
 chl2c          27   4.5333133499525620E-002   4.5333133499525620E-002  0.30964730000000001        1.7120195054463663E-012   9.2945961245366834E-017
 chl          27   3.4656556693812408E-005   7.6448623817665427E-004   4.5333133499525620E-002
 chl2c          28   3.1209236063453518E-002   3.1209236063453518E-002  0.28776342500000002        3.6592326195693871E-012   9.2430483070387299E-017
 chl          28   2.3859031474516756E-005   7.6448623817665427E-004   3.1209236063453518E-002
 chl2c          29  0.68676261342731337        3.7743217595736761E-002  0.68676297499999994        4.5543427119624640E-012   2.9703909561926214E-006
 chl          29   5.2539453939111835E-004   7.6503078228023819E-004  0.68676261342731337     
 chl2c          30   2.5380056985171612E-002   2.5380056985171612E-002  0.38930277499999999        1.2564192574047397E-011   1.5791945478793726E-016
 chl          30   1.9402704289302962E-005   7.6448623817665427E-004   2.5380056985171612E-002
 chl2c          31  0.63559352467898456        3.7576959810037038E-002  0.63559385000000002        4.5543427119624640E-012   2.8277612795640851E-006
 chl          31   4.8624861139741745E-004   7.6503078228023819E-004  0.63559352467898456     
 chl2c          32  0.24722663657736441        2.0893126428578448E-002  0.24722667500000001        4.5543427119624640E-012   3.6224228862520169E-006
 chl          32   1.8900136137409615E-004   7.6448623817665427E-004  0.24722663657736441     
 chl2c          33  0.60343098703822717        3.7458922634011876E-002  0.60343137499999999        4.5543427119624640E-012   2.1372841863935614E-006
 chl          33   4.6164328006599120E-004   7.6503078228023819E-004  0.60343098703822717     
 chl2c          34  0.38240971317766537        2.5350269098008315E-002  0.38241020000000003        1.2564192574047397E-011   1.8870894049051733E-006
 chl          34   2.9234696306940674E-004   7.6448623817665427E-004  0.38240971317766537     
 chl2c          35   2.5740370148566064E-002   2.5740370148566064E-002  0.49574644999999995        1.2564192574047397E-011   1.1385978379525466E-016
 chl          35   1.9678158744151918E-005   7.6448623817665427E-004   2.5740370148566064E-002
 chl2c          36   3.7770393924465726E-002   3.7770393924465726E-002  0.69587337500000002        4.5543427119624640E-012   1.1839119144053672E-016
 chl          36   2.8895514017179596E-005   7.6503078244207997E-004   3.7770393924465726E-002
 chl2c          37   2.1353674699533250E-002   2.1353674699533250E-002  0.33194060000000003        4.5543427119624640E-012   1.0421605967213943E-016
 chl          37   1.6324590442294173E-005   7.6448623817665427E-004   2.1353674699533250E-002
 chl2c          38   2.1543295686358745E-002   2.1543295686358745E-002  0.38455722500000000        4.5543427119624640E-012   1.6121351682814942E-016
 chl          38   1.6469553077191739E-005   7.6448623817665427E-004   2.1543295686358745E-002
 chl2c          39   2.5670077108751441E-002   2.5670077108751441E-002  0.47091117500000002        1.2564192574047397E-011   1.2963461239598500E-016
 chl          39   1.9624420682574036E-005   7.6448623817665427E-004   2.5670077108751441E-002
 chl2c          40   3.7687445774703773E-002   3.7687445774703773E-002  0.66875547499999999        4.5543427119624640E-012   1.5595221117290186E-016
 chl          40   2.8832056129265089E-005   7.6503078244207997E-004   3.7687445774703773E-002
 chl2c          41   2.5582381488167241E-002   2.5582381488167241E-002  0.44304987499999998        1.2564192574047397E-011   9.3810231259908510E-017
 chl          41   1.9557378587489052E-005   7.6448623817665427E-004   2.5582381488167241E-002
 chl2c          42   3.7949995630725070E-002   3.7949995630725070E-002  0.76234377499999995        4.5543427119624640E-012   1.3149060476611480E-016
 chl          42   2.9032914844905220E-005   7.6503078228023819E-004   3.7949995630725070E-002
 chl2c          43   2.1185090152268007E-002   2.1185090152268007E-002  0.29539925000000000        4.5543427119624640E-012   1.6051915514117043E-016
 chl          43   1.6195709875940653E-005   7.6448623817665427E-004   2.1185090152268007E-002
 chl2c          44   3.7536352708156646E-002   3.7536352708156646E-002  0.62417262500000004        4.5543427119624640E-012   1.1229427073432120E-016
 chl          44   2.8716465276268015E-005   7.6503078228023819E-004   3.7536352708156646E-002
 chl2c          45  0.37662224099162878        4.6544927192009838E-002  0.37662252499999999        1.7120195054463663E-012   4.2752333618918230E-007
 chl          45   2.8792252022935159E-004   7.6448623817665427E-004  0.37662224099162878     
 chl2c          46  0.51876015108339979        3.7083195475449568E-002  0.51876034999999998        4.5543427119624640E-012   3.0807614209926041E-006
 chl          46   3.9686748419914787E-004   7.6503078228023819E-004  0.51876015108339979     
 chl2c          47   3.7519784612651236E-002   3.7519784612651236E-002  0.61962282499999999        4.5543427119624640E-012   1.4348672662514570E-016
 chl          47   2.8703790173202619E-005   7.6503078228023819E-004   3.7519784612651236E-002
 chl2c          48   3.7823212136301673E-002   3.7823212136301673E-002  0.71424949999999998        4.5543427119624640E-012   1.3798026937094136E-016
 chl          48   2.8935921568986267E-005   7.6503078228023819E-004   3.7823212136301673E-002
 chl2c          49   3.7152990741888416E-002   3.7152990741888416E-002  0.53276120000000005        4.5543427119624640E-012   1.2838582904282158E-016
 chl          49   2.8423181571317340E-005   7.6503078228023819E-004   3.7152990741888416E-002
 chl2c          50  0.38132557042809406        2.1533072915600981E-002  0.38132569999999999        4.5543427119624640E-012   2.5555057942498739E-006
 chl          50   2.9151815085714047E-004   7.6448623817665427E-004  0.38132557042809406     
 chl2c          51   2.0700971146093840E-002   2.0700971146093840E-002  0.22275920000000002        4.5543427119624640E-012   1.7139883402961931E-016
 chl          51   1.5825607558080745E-005   7.6448623817665427E-004   2.0700971146093840E-002
 chl2c          52   3.7581825176985564E-002   3.7581825176985564E-002  0.63698869999999996        4.5543427119624640E-012   1.5273079574462084E-016
 chl          52   2.8751253120750728E-005   7.6503078244207997E-004   3.7581825176985564E-002
 chl2c          53   3.7925801262726190E-002   3.7925801262726190E-002  0.75269794999999995        4.5543427119624640E-012   1.3673562459925270E-016
 chl          53   2.9014405414766242E-005   7.6503078244207997E-004   3.7925801262726190E-002
 chl2c          54   3.7082433371327092E-002   3.7082433371327092E-002  0.51861124999999997        4.5543427119624640E-012   1.1211350357419426E-016
 chl          54   2.8369203010921176E-005   7.6503078228023819E-004   3.7082433371327092E-002
 chl2c          55  0.57808257415633968        3.7357235588660491E-002  0.57808280000000001        4.5543427119624640E-012   3.3695176392984553E-006
 chl          55   4.4225096392939837E-004   7.6503078228023819E-004  0.57808257415633968     
 chl2c          56   3.7507394187257688E-002   3.7507394187257688E-002  0.61626080000000005        4.5543427119624640E-012   1.5313554525413819E-016
 chl          56   2.8694311122441270E-005   7.6503078244207997E-004   3.7507394187257688E-002
 chl2c          57  0.68163421356708609        3.7727617852646313E-002  0.68163462500000005        4.5543427119624640E-012   2.5715780187601762E-006
 chl          57   5.2147115563420281E-004   7.6503078228023819E-004  0.68163421356708609     
 chl2c          58  0.69416748975618514        3.7765358178394853E-002  0.69416802499999997        4.5543427119624640E-012   2.0500900149971548E-006
 chl          58   5.3105949783402884E-004   7.6503078244207997E-004  0.69416748975618514     
 chl2c          59   3.7173699120809672E-002   3.7173699120809672E-002  0.53705127500000005        4.5543427119624640E-012   1.5578082785772864E-016
 chl          59   2.8439024118643226E-005   7.6503078228023819E-004   3.7173699120809672E-002
 chl2c          60  0.64452077404144081        3.7607757740906807E-002  0.64452155000000000        4.5543427119624640E-012   1.2190781494766631E-006
 chl          60   4.9307823196078813E-004   7.6503078228023819E-004  0.64452077404144081     
 chl2c          61   3.7805373434125003E-002   3.7805373434125003E-002  0.70794139999999994        4.5543427119624640E-012   1.3381556830782237E-016
 chl          61   2.8922274412705187E-005   7.6503078228023819E-004   3.7805373434125003E-002
 chl2c          62   3.7956103087269030E-002   3.7956103087269030E-002  0.76481592499999995        4.5543427119624640E-012   1.0916168444091208E-016
 chl          62   2.9037587237162790E-005   7.6503078228023819E-004   3.7956103087269030E-002
 chl2c          63  0.72597851970632676        3.7855601011927406E-002  0.72597904999999996        4.5543427119624640E-012   2.2632218415693105E-006
 chl          63   5.5539591496707409E-004   7.6503078244207997E-004  0.72597851970632676     
 chl2c          64   2.5708982294816416E-002   2.5708982294816416E-002  0.48435739999999999        1.2564192574047397E-011   9.1264744630832275E-017
 chl          64   1.9654163161914411E-005   7.6448623817665427E-004   2.5708982294816416E-002
 chl2c          65   3.7953597170552002E-002   3.7953597170552002E-002  0.76379975000000000        4.5543427119624640E-012   1.2063979253536255E-016
 chl          65   2.9035670139878911E-005   7.6503078244207997E-004   3.7953597170552002E-002
 chl2c          66   3.1840477731474713E-002   3.1840477731474713E-002  0.35213202499999996        3.6592326195693871E-012   7.4396272796428196E-017
 chl          66   2.4341607042682634E-005   7.6448623817665427E-004   3.1840477731474713E-002
 chl2c          67   3.7937587124568600E-002   3.7937587124568600E-002  0.75736760000000003        4.5543427119624640E-012   1.2765405225942932E-016
 chl          67   2.9023421955733408E-005   7.6503078228023819E-004   3.7937587124568600E-002
 chl2c          68  0.72590713454784184        3.7855407263856986E-002  0.72590779999999999        4.5543427119624640E-012   1.8031896347840633E-006
 chl          68   5.5534130312342371E-004   7.6503078244207997E-004  0.72590713454784184     
 chl2c          69  0.45524198536176069        2.1732330561541505E-002  0.45524217500000003        4.5543427119624640E-012   2.4885971310187644E-006
 chl          69   3.4802623284928394E-004   7.6448623817665427E-004  0.45524198536176069     
 chl2c          70   3.2658010878182209E-002   3.2658010878182209E-002  0.48694062500000002        3.6592326195693871E-012   1.1145261015013772E-016
 chl          70   2.4966599882593769E-005   7.6448623817665427E-004   3.2658010878182209E-002
 chl2c          71   4.3481058864416305E-002   4.3481058864416305E-002  0.23986107500000001        1.7120195054463663E-012   8.1891553603742922E-017
 chl          71   3.3240671123195286E-005   7.6448623817665427E-004   4.3481058864416305E-002
 chl2c          72   3.7549776402781669E-002   3.7549776402781669E-002  0.62790522500000001        4.5543427119624640E-012   1.5362004305089725E-016
 chl          72   2.8726734821945211E-005   7.6503078244207997E-004   3.7549776402781669E-002
 chl2c          73   3.1852614277819484E-002   3.1852614277819484E-002  0.35362212500000001        3.6592326195693871E-012   9.0318721001694446E-017
 chl          73   2.4350885265342205E-005   7.6448623817665427E-004   3.1852614277819484E-002
 chl2c          74  0.64719523587865979        3.7616827685877569E-002  0.64719590000000005        4.5543427119624640E-012   1.4362146274964940E-006
 chl          74   4.9512427759229442E-004   7.6503078228023819E-004  0.64719523587865979     
 chl2c          75   3.7826830779512356E-002   3.7826830779512356E-002  0.71554212500000003        4.5543427119624640E-012   1.2105051694841820E-016
 chl          75   2.8938689948554492E-005   7.6503078244207997E-004   3.7826830779512356E-002
 chl2c          76  0.55513954196751802        3.7257729557919804E-002  0.55513977500000000        4.5543427119624640E-012   3.0115061840425069E-006
 chl          76   4.2469883815594823E-004   7.6503078244207997E-004  0.55513954196751802     
 chl2c          77  0.52972914463188125        3.7138172437479272E-002  0.52973029999999999        4.5543427119624640E-012   5.5307498378919069E-007
 chl          77   4.0525910191436957E-004   7.6503078228023819E-004  0.52972914463188125     
 chl2c          78  0.45117483525868146        4.7515248899399322E-002  0.45117492500000000        1.7120195054463663E-012   1.9416729933099092E-006
 chl          78   3.4491695256688113E-004   7.6448623817665427E-004  0.45117483525868146     
 prod   3.9025018192484781E-007   1.6115119916369824E-005   10.000000000000000     
 dcdom   1.0430036934431344E-012  -2.8226893072389697E-010
 chl2c           1  0.60825765791989683        3.7477407714772232E-002  0.60826437499999997        5.7537284107587313E-013   1.5845968999567396E-008
 chl           1   4.1235352337738463E-004   6.7792574085715602E-004  0.60825765791989683     
 chl2c           2  0.48302386657671947        3.2640259920490348E-002  0.48302390000000001        4.6690962435346622E-013   1.6296373386458217E-006
 chl           2   3.2719024591580464E-004   6.7737904595618252E-004  0.48302386657671947     
 chl2c           3   3.7922212503796585E-002   3.7922212503796585E-002  0.75128689999999998        5.7537284107587313E-013   1.5404732957457071E-016
 chl           3   2.5708444006578806E-005   6.7792574085715602E-004   3.7922212503796585E-002
 chl2c           4  0.77318737352666389        3.7976509103863923E-002  0.77318742499999993        5.7537284107587313E-013   3.3412316153988554E-006
 chl           4   5.2416362301946221E-004   6.7792574085715602E-004  0.77318737352666389     
 chl2c           5  0.48489672043893245        2.5710500362372445E-002  0.48489679999999996        1.5826722730142577E-012   2.3386162413394208E-006
 chl           5   3.2845887787820579E-004   6.7737904595618252E-004  0.48489672043893245     
 chl2c           6   3.1261039902252048E-002   3.1261039902252048E-002  0.29222855000000003        4.6690962435346622E-013   1.3801464581734379E-016
 chl           6   2.1175573384585647E-005   6.7737904595618252E-004   3.1261039902252048E-002
 chl2c           7  0.22770739673669388        4.3064391842467263E-002  0.22770740000000000        2.1897813734789548E-013   1.7396714024027812E-006
 chl           7   1.5424421915866764E-004   6.7737904595618252E-004  0.22770739673669388     
 chl2c           8  0.49578349511005138        4.7969800906495587E-002  0.49578364999999996        2.1897813734789548E-013   1.7375279170283940E-007
 chl           8   3.3583335091846828E-004   6.7737904595618252E-004  0.49578349511005138     
 chl2c           9  0.28700199211685601        2.4803669054600401E-002  0.28700202499999999        1.5826722730142577E-012   1.9822459378587689E-006
 chl           9   1.9440913560763974E-004   6.7737904595618252E-004  0.28700199211685601     
 chl2c          10  0.39094658495186296        2.5387016219684602E-002  0.39094662499999999        1.5826722730142577E-012   3.0200460971445311E-006
 chl          10   2.6481902473452060E-004   6.7737904595618252E-004  0.39094658495186296     
 chl2c          11   2.1820572217820047E-002   2.1820572217820047E-002  0.49737575000000001        5.7537284107587313E-013   1.4216091979736891E-016
 chl          11   1.4780798391124924E-005   6.7737904595618252E-004   2.1820572217820047E-002
 chl2c          12   4.5290941298723353E-002   4.5290941298723353E-002  0.30768942500000002        2.1897813734789548E-013   8.1661167552469633E-017
 chl          12   3.0679134607386688E-005   6.7737904595618252E-004   4.5290941298723353E-002
 chl2c          13   3.7935816987997487E-002   3.7935816987997487E-002  0.75666275000000005        5.7537284107587313E-013   1.2804872384012266E-016
 chl          13   2.5717666831613695E-005   6.7792574072546026E-004   3.7935816987997487E-002
 chl2c          14   4.6856526101924839E-002   4.6856526101924839E-002  0.39804095000000000        2.1897813734789548E-013   1.0936591722326132E-016
 chl          14   3.1739628947742813E-005   6.7737904595618252E-004   4.6856526101924839E-002
 chl2c          15  0.25607261963002287        2.0954299823745293E-002  0.25607262500000000        5.7537284107587313E-013   3.5129601530736794E-006
 chl          15   1.7345822678048532E-004   6.7737904595618252E-004  0.25607261963002287     
 chl2c          16   3.7823443882273475E-002   3.7823443882273475E-002  0.71433214999999994        5.7537284107587313E-013   1.6038528268212248E-016
 chl          16   2.5641486215659312E-005   6.7792574085715602E-004   3.7823443882273475E-002
 chl2c          17   3.7542254757581245E-002   3.7542254757581245E-002  0.62580860000000005        5.7537284107587313E-013   1.6030479646677388E-016
 chl          17   2.5450860869981355E-005   6.7792574085715602E-004   3.7542254757581245E-002
 chl2c          18   2.5694475239060960E-002   2.5694475239060960E-002  0.47925950000000000        1.5826722730142577E-012   1.4843109659350800E-016
 chl          18   1.7404899123779869E-005   6.7737904595618252E-004   2.5694475239060960E-002
 chl2c          19  0.63367124350511561        3.7570220750293731E-002  0.63367130000000005        5.7537284107587313E-013   2.0447408563323821E-006
 chl          19   4.2958204721308080E-004   6.7792574085715602E-004  0.63367124350511561     
 chl2c          20   3.7020645196759419E-002   3.7020645196759419E-002  0.50678202500000002        5.7537284107587313E-013   1.4103052089709161E-016
 chl          20   2.5097248317147583E-005   6.7792574072546026E-004   3.7020645196759419E-002
 chl2c          21  0.71973174930238104        3.7838475073783531E-002  0.71973185000000006        5.7537284107587313E-013   1.4799312598989531E-006
 chl          21   4.8792467926944791E-004   6.7792574072546026E-004  0.71973174930238104     
 chl2c          22  0.64616889019784129        3.7613353106285476E-002  0.64616892500000001        5.7537284107587313E-013   3.4514794522080198E-006
 chl          22   4.3805452360621785E-004   6.7792574085715602E-004  0.64616889019784129     
 chl2c          23   3.2286562315070731E-002   3.2286562315070731E-002  0.41564179999999995        4.6690962435346622E-013   1.0733495891962686E-016
 chl          23   2.1870240778187446E-005   6.7737904595618252E-004   3.2286562315070731E-002
 chl2c          24   3.7348402796863071E-002   3.7348402796863071E-002  0.57597492500000003        5.7537284107587313E-013   1.1443774460633632E-016
 chl          24   2.5319443630976250E-005   6.7792574072546026E-004   3.7348402796863071E-002
 chl2c          25   4.5426679235459781E-002   4.5426679235459781E-002  0.31406487500000002        2.1897813734789548E-013   8.5729480843672265E-017
 chl          25   3.0771080641473277E-005   6.7737904595618252E-004   4.5426679235459781E-002
 chl2c          26   4.7955660680174553E-002   4.7955660680174553E-002  0.49427735000000000        2.1897813734789548E-013   7.8937754783048686E-017
 chl          26   3.2484159679735054E-005   6.7737904595618252E-004   4.7955660680174553E-002
 chl2c          27   4.5333133499525620E-002   4.5333133499525620E-002  0.30964730000000001        2.1897813734789548E-013   1.0853696302553575E-016
 chl          27   3.0707714720112923E-005   6.7737904595618252E-004   4.5333133499525620E-002
 chl2c          28   3.1209236063453518E-002   3.1209236063453518E-002  0.28776342500000002        4.6690962435346622E-013   1.0794587054158920E-016
 chl          28   2.1140482549683430E-005   6.7737904595618252E-004   3.1209236063453518E-002
 chl2c          29  0.68676292982502563        3.7743217595736761E-002  0.68676297499999994        5.7537284107587313E-013   3.0035520724021112E-006
 chl          29   4.6557426790441779E-004   6.7792574072546026E-004  0.68676292982502563     
 chl2c          30   2.5380056985171612E-002   2.5380056985171612E-002  0.38930277499999999        1.5826722730142577E-012   1.6280438366662253E-016
 chl          30   1.7191918786929092E-005   6.7737904595618252E-004   2.5380056985171612E-002
 chl2c          31  0.63559380783681685        3.7576959810037038E-002  0.63559385000000002        5.7537284107587313E-013   2.7564195160215897E-006
 chl          31   4.3088540297828989E-004   6.7792574072546026E-004  0.63559380783681685     
 chl2c          32  0.24722667023723829        2.0893126428578448E-002  0.24722667500000001        5.7537284107587313E-013   3.6919104461758815E-006
 chl          32   1.6746616602022422E-004   6.7737904595618252E-004  0.24722667023723829     
 chl2c          33  0.60343132903395358        3.7458922634011876E-002  0.60343137499999999        5.7537284107587313E-013   2.2789665575409739E-006
 chl          33   4.0908163071229191E-004   6.7792574072546026E-004  0.60343132903395358     
 chl2c          34  0.38241013354703923        2.5350269098008315E-002  0.38241020000000003        1.5826722730142577E-012   1.7414279964391183E-006
 chl          34   2.5903661142606980E-004   6.7737904595618252E-004  0.38241013354703923     
 chl2c          35   2.5740370148566064E-002   2.5740370148566064E-002  0.49574644999999995        1.5826722730142577E-012   1.1734959449944382E-016
 chl          35   1.7435987373794682E-005   6.7737904595618252E-004   2.5740370148566064E-002
 chl2c          36   3.7770393924465726E-002   3.7770393924465726E-002  0.69587337500000002        5.7537284107587313E-013   1.2196384087582561E-016
 chl          36   2.5605522283710051E-005   6.7792574085715602E-004   3.7770393924465726E-002
 chl2c          37   2.1353674699533250E-002   2.1353674699533250E-002  0.33194060000000003        5.7537284107587313E-013   1.0740151943435344E-016
 chl          37   1.4464531795628506E-005   6.7737904595618252E-004   2.1353674699533250E-002
 chl2c          38   2.1543295686358745E-002   2.1543295686358745E-002  0.38455722500000000        5.7537284107587313E-013   1.6620265195322126E-016
 chl          38   1.4592977078777630E-005   6.7737904595618252E-004   2.1543295686358745E-002
 chl2c          39   2.5670077108751441E-002   2.5670077108751441E-002  0.47091117500000002        1.5826722730142577E-012   1.3362355921111636E-016
 chl          39   1.7388372341547690E-005   6.7737904595618252E-004   2.5670077108751441E-002
 chl2c          40   3.7687445774703773E-002   3.7687445774703773E-002  0.66875547499999999        5.7537284107587313E-013   1.6069604387532609E-016
 chl          40   2.5549289597829948E-005   6.7792574085715602E-004   3.7687445774703773E-002
 chl2c          41   2.5582381488167241E-002   2.5582381488167241E-002  0.44304987499999998        1.5826722730142577E-012   9.6668288008446123E-017
 chl          41   1.7328969165741832E-005   6.7737904595618252E-004   2.5582381488167241E-002
 chl2c          42   3.7949995630725070E-002   3.7949995630725070E-002  0.76234377499999995        5.7537284107587313E-013   1.3547020182888398E-016
 chl          42   2.5727278898487275E-005   6.7792574072546026E-004   3.7949995630725070E-002
 chl2c          43   2.1185090152268007E-002   2.1185090152268007E-002  0.29539925000000000        5.7537284107587313E-013   1.6548632944094734E-016
 chl          43   1.4350336155839020E-005   6.7737904595618252E-004   2.1185090152268007E-002
 chl2c          44   3.7536352708156646E-002   3.7536352708156646E-002  0.62417262500000004        5.7537284107587313E-013   1.1567813114787664E-016
 chl          44   2.5446859713809230E-005   6.7792574072546026E-004   3.7536352708156646E-002
 chl2c          45  0.37662247140138272        4.6544927192009838E-002  0.37662252499999999        2.1897813734789548E-013   2.8975417034543316E-007
 chl          45   2.5511617036352825E-004   6.7737904595618252E-004  0.37662247140138272     
 chl2c          46  0.51876032482080459        3.7083195475449568E-002  0.51876034999999998        5.7537284107587313E-013   3.0747587186861633E-006
 chl          46   3.5168097746312432E-004   6.7792574072546026E-004  0.51876032482080459     
 chl2c          47   3.7519784612651236E-002   3.7519784612651236E-002  0.61962282499999999        5.7537284107587313E-013   1.4784045968149440E-016
 chl          47   2.5435627775391315E-005   6.7792574072546026E-004   3.7519784612651236E-002
 chl2c          48   3.7823212136301673E-002   3.7823212136301673E-002  0.71424949999999998        5.7537284107587313E-013   1.4216210246796048E-016
 chl          48   2.5641329104118531E-005   6.7792574072546026E-004   3.7823212136301673E-002
 chl2c          49   3.7152990741888416E-002   3.7152990741888416E-002  0.53276120000000005        5.7537284107587313E-013   1.3226881562297748E-016
 chl          49   2.5186968768860870E-005   6.7792574072546026E-004   3.7152990741888416E-002
 chl2c          50  0.38132568433398517        2.1533072915600981E-002  0.38132569999999999        5.7537284107587313E-013   2.6702564037931291E-006
 chl          50   2.5830202825274327E-004   6.7737904595618252E-004  0.38132568433398517     
 chl2c          51   2.0700971146093840E-002   2.0700971146093840E-002  0.22275920000000002        5.7537284107587313E-013   1.7670972631852050E-016
 chl          51   1.4022404085307508E-005   6.7737904595618252E-004   2.0700971146093840E-002
 chl2c          52   3.7581825176985564E-002   3.7581825176985564E-002  0.63698869999999996        5.7537284107587313E-013   1.5737369556049712E-016
 chl          52   2.5477686675872058E-005   6.7792574085715602E-004   3.7581825176985564E-002
 chl2c          53   3.7925801262726190E-002   3.7925801262726190E-002  0.75269794999999995        5.7537284107587313E-013   1.4087864050735269E-016
 chl          53   2.5710876918634915E-005   6.7792574085715602E-004   3.7925801262726190E-002
 chl2c          54   3.7082433371327092E-002   3.7082433371327092E-002  0.51861124999999997        5.7537284107587313E-013   1.1549177288950336E-016
 chl          54   2.5139136111159444E-005   6.7792574072546026E-004   3.7082433371327092E-002
 chl2c          55  0.57808277194848467        3.7357235588660491E-002  0.57808280000000001        5.7537284107587313E-013   3.4272288905929802E-006
 chl          55   3.9189719137380379E-004   6.7792574072546026E-004  0.57808277194848467     
 chl2c          56   3.7507394187257688E-002   3.7507394187257688E-002  0.61626080000000005        5.7537284107587313E-013   1.5779112215116023E-016
 chl          56   2.5427227992018056E-005   6.7792574085715602E-004   3.7507394187257688E-002
 chl2c          57  0.68163456973957204        3.7727617852646313E-002  0.68163462500000005        5.7537284107587313E-013   2.4188468331649296E-006
 chl          57   4.6209762059477979E-004   6.7792574072546026E-004  0.68163456973957204     
 chl2c          58  0.69416796446450935        3.7765358178394853E-002  0.69416802499999997        5.7537284107587313E-013   2.2900157438026003E-006
 chl          58   4.7059433158890647E-004   6.7792574085715602E-004  0.69416796446450935     
 chl2c          59   3.7173699120809672E-002   3.7173699120809672E-002  0.53705127500000005        5.7537284107587313E-013   1.6051928877564833E-016
 chl          59   2.5201007511980287E-005   6.7792574072546026E-004   3.7173699120809672E-002
 chl2c          60  0.64452146523985132        3.7607757740906807E-002  0.64452155000000000        5.7537284107587313E-013   1.4099460055736774E-006
 chl          60   4.3693769173618519E-004   6.7792574072546026E-004  0.64452146523985132     
 chl2c          61   3.7805373434125003E-002   3.7805373434125003E-002  0.70794139999999994        5.7537284107587313E-013   1.3786757195588773E-016
 chl          61   2.5629235788731830E-005   6.7792574072546026E-004   3.7805373434125003E-002
 chl2c          62   3.7956103087269030E-002   3.7956103087269030E-002  0.76481592499999995        5.7537284107587313E-013   1.1244870691155218E-016
 chl          62   2.5731419300488785E-005   6.7792574072546026E-004   3.7956103087269030E-002
 chl2c          63  0.72597898580234455        3.7855601011927406E-002  0.72597904999999996        5.7537284107587313E-013   2.3618283607503119E-006
 chl          63   4.9215984179678120E-004   6.7792574085715602E-004  0.72597898580234455     
 chl2c          64   2.5708982294816416E-002   2.5708982294816416E-002  0.48435739999999999        1.5826722730142577E-012   9.4042901863531531E-017
 chl          64   1.7414725899367132E-005   6.7737904595618252E-004   2.5708982294816416E-002
 chl2c          65   3.7953597170552002E-002   3.7953597170552002E-002  0.76379975000000000        5.7537284107587313E-013   1.2428217104159111E-016
 chl          65   2.5729720480040527E-005   6.7792574085715602E-004   3.7953597170552002E-002
 chl2c          66   3.1840477731474713E-002   3.1840477731474713E-002  0.35213202499999996        4.6690962435346622E-013   8.5299423119621651E-017
 chl          66   2.1568072428535416E-005   6.7737904595618252E-004   3.1840477731474713E-002
 chl2c          67   3.7937587124568600E-002   3.7937587124568600E-002  0.75736760000000003        5.7537284107587313E-013   1.3151428220669866E-016
 chl          67   2.5718866852759851E-005   6.7792574072546026E-004   3.7937587124568600E-002
 chl2c          68  0.72590772678287874        3.7855407263856986E-002  0.72590779999999999        5.7537284107587313E-013   2.0704731137107857E-006
 chl          68   4.9211153347321704E-004   6.7792574085715602E-004  0.72590772678287874     
 chl2c          69  0.45524215130965190        2.1732330561541505E-002  0.45524217500000003        5.7537284107587313E-013   2.5167082720896401E-006
 chl          69   3.0837149413317209E-004   6.7737904595618252E-004  0.45524215130965190     
 chl2c          70   3.2658010878182209E-002   3.2658010878182209E-002  0.48694062500000002        4.6690962435346622E-013   1.2968267769128285E-016
 chl          70   2.2121852251489694E-005   6.7737904595618252E-004   3.2658010878182209E-002
 chl2c          71   4.3481058864416305E-002   4.3481058864416305E-002  0.23986107500000001        2.1897813734789548E-013   9.3677335006447150E-017
 chl          71   2.9453158170742929E-005   6.7737904595618252E-004   4.3481058864416305E-002
 chl2c          72   3.7549776402781669E-002   3.7549776402781669E-002  0.62790522500000001        5.7537284107587313E-013   1.5829079651203004E-016
 chl          72   2.5455959986876318E-005   6.7792574085715602E-004   3.7549776402781669E-002
 chl2c          73   3.1852614277819484E-002   3.1852614277819484E-002  0.35362212500000001        4.6690962435346622E-013   1.0305099023552915E-016
 chl          73   2.1576293470719641E-005   6.7737904595618252E-004   3.1852614277819484E-002
 chl2c          74  0.64719582783095031        3.7616827685877569E-002  0.64719590000000005        5.7537284107587313E-013   1.6697053644255428E-006
 chl          74   4.3875071097672445E-004   6.7792574072546026E-004  0.64719582783095031     
 chl2c          75   3.7826830779512356E-002   3.7826830779512356E-002  0.71554212500000003        5.7537284107587313E-013   1.2470563781305324E-016
 chl          75   2.5643782280479186E-005   6.7792574085715602E-004   3.7826830779512356E-002
 chl2c          76  0.55513974601957083        3.7257729557919804E-002  0.55513977500000000        5.7537284107587313E-013   3.0592799364032738E-006
 chl          76   3.7634352359957099E-004   6.7792574085715602E-004  0.55513974601957083     
 chl2c          77  0.52973018887595991        3.7138172437479272E-002  0.52973029999999999        5.7537284107587313E-013   7.2647534343689830E-007
 chl          77   3.5911773067837311E-004   6.7792574072546026E-004  0.52973018887595991     
 chl2c          78  0.45117491384876457        4.7515248899399322E-002  0.45117492500000000        2.1897813734789548E-013   1.9986542686957297E-006
 chl          78   3.0561643270223898E-004   6.7737904595618252E-004  0.45117491384876457     
 prod   4.5791573431541278E-007   2.0571761146926599E-006   10.000000000000000     
 dcdom   1.1343308905362306E-012  -2.7051984767266548E-010
 chl2c           1  0.60826426958876023        3.7477407714772232E-002  0.60826437499999997        7.7506900137605229E-014   1.3602168115515148E-007
 chl           1   3.2979270916557297E-004   5.4218655550578639E-004  0.60826426958876023     
 chl2c           2  0.48302389409176916        3.2640259920490348E-002  0.48302390000000001        6.3276549603110913E-014   1.2493742992435956E-006
 chl           2   2.6147694478053849E-004   5.4133335426851737E-004  0.48302389409176916     
 chl2c           3   3.7922212503796585E-002   3.7922212503796585E-002  0.75128689999999998        7.7506900137605229E-014   1.4102779945909713E-016
 chl           3   2.0560913774591932E-005   5.4218655550578639E-004   3.7922212503796585E-002
 chl2c           4  0.77318741747969810        3.7976509103863923E-002  0.77318742499999993        7.7506900137605229E-014   3.0806663227080929E-006
 chl           4   4.1921182264373195E-004   5.4218655550578639E-004  0.77318741747969810     
 chl2c           5  0.48489678768820410        2.5710500362372445E-002  0.48489679999999996        2.1272585133753981E-013   2.0312692555696003E-006
 chl           5   2.6249080455328466E-004   5.4133335426851737E-004  0.48489678768820410     
 chl2c           6   3.1261039902252048E-002   3.1261039902252048E-002  0.29222855000000003        6.3276549603110913E-014   1.2638475377221970E-016
 chl           6   1.6922643588208065E-005   5.4133335426851737E-004   3.1261039902252048E-002
 chl2c           7  0.22770739944895144        4.3064391842467263E-002  0.22770740000000000        2.9723109186545296E-014   1.3983910656379741E-006
 chl           7   1.2326561033546203E-004   5.4133335426851737E-004  0.22770739944895144     
 chl2c           8  0.49578363559120220        4.7969800906495587E-002  0.49578364999999996        2.9723109186545296E-014   2.5352505309872034E-007
 chl           8   2.6838421844602579E-004   5.4133335426851737E-004  0.49578363559120220     
 chl2c           9  0.28700202064312197        2.4803669054600401E-002  0.28700202499999999        2.1272585133753981E-013   2.0108736839142344E-006
 chl           9   1.5536376651658349E-004   5.4133335426851737E-004  0.28700202064312197     
 chl2c          10  0.39094661897413896        2.5387016219684602E-002  0.39094662499999999        2.1272585133753981E-013   2.6977772896729761E-006
 chl          10   2.1163244458920663E-004   5.4133335426851737E-004  0.39094661897413896     
 chl2c          11   2.1820572217820047E-002   2.1820572217820047E-002  0.49737575000000001        7.7506900137605229E-014   1.3052055947390434E-016
 chl          11   1.1812203550730948E-005   5.4133335426851737E-004   2.1820572217820047E-002
 chl2c          12   4.5290941298723353E-002   4.5290941298723353E-002  0.30768942500000002        2.9723109186545296E-014   6.6474369607617110E-017
 chl          12   2.4517497171216433E-005   5.4133335426851737E-004   4.5290941298723353E-002
 chl2c          13   3.7935816987997487E-002   3.7935816987997487E-002  0.75666275000000005        7.7506900137605229E-014   1.1713775304919424E-016
 chl          13   2.0568289939192491E-005   5.4218655540488533E-004   3.7935816987997487E-002
 chl2c          14   4.6856526101924839E-002   4.6856526101924839E-002  0.39804095000000000        2.9723109186545296E-014   9.9407663537380451E-017
 chl          14   2.5365000444125309E-005   5.4133335426851737E-004   4.6856526101924839E-002
 chl2c          15  0.25607262419735027        2.0954299823745293E-002  0.25607262500000000        7.7506900137605229E-014   3.1659977833173209E-006
 chl          15   1.3862065259309314E-004   5.4133335426851737E-004  0.25607262419735027     
 chl2c          16   3.7823443882273475E-002   3.7823443882273475E-002  0.71433214999999994        7.7506900137605229E-014   1.4685749482164059E-016
 chl          16   2.0507362755896263E-005   5.4218655550578639E-004   3.7823443882273475E-002
 chl2c          17   3.7542254757581245E-002   3.7542254757581245E-002  0.62580860000000005        7.7506900137605229E-014   1.4678344868213828E-016
 chl          17   2.0354905792933696E-005   5.4218655550578639E-004   3.7542254757581245E-002
 chl2c          18   2.5694475239060960E-002   2.5694475239060960E-002  0.47925950000000000        2.1272585133753981E-013   1.3632434883343434E-016
 chl          18   1.3909276467330234E-005   5.4133335426851737E-004   2.5694475239060960E-002
 chl2c          19  0.63367129198638450        3.7570220750293731E-002  0.63367130000000005        7.7506900137605229E-014   1.9418243266392411E-006
 chl          19   3.4356805512499923E-004   5.4218655550578639E-004  0.63367129198638450     
 chl2c          20   3.7020645196759419E-002   3.7020645196759419E-002  0.50678202500000002        7.7506900137605229E-014   1.2906196634333769E-016
 chl          20   2.0072096098097403E-005   5.4218655540488533E-004   3.7020645196759419E-002
 chl2c          21  0.71973183675533248        3.7838475073783531E-002  0.71973185000000006        7.7506900137605229E-014   1.5156912600499023E-006
 chl          21   3.9022892538560495E-004   5.4218655540488533E-004  0.71973183675533248     
 chl2c          22  0.64616891981348790        3.7613353106285476E-002  0.64616892500000001        7.7506900137605229E-014   3.1198025493903263E-006
 chl          22   3.5034410090856969E-004   5.4218655550578639E-004  0.64616891981348790     
 chl2c          23   3.2286562315070731E-002   3.2286562315070731E-002  0.41564179999999995        6.3276549603110913E-014   8.8271234747371488E-017
 chl          23   1.7477793075816745E-005   5.4133335426851737E-004   3.2286562315070731E-002
 chl2c          24   3.7348402796863071E-002   3.7348402796863071E-002  0.57597492500000003        7.7506900137605229E-014   1.0464559610012120E-016
 chl          24   2.0249801862305375E-005   5.4218655540488533E-004   3.7348402796863071E-002
 chl2c          25   4.5426679235459781E-002   4.5426679235459781E-002  0.31406487500000002        2.9723109186545296E-014   6.9898730314834615E-017
 chl          25   2.4590976643811451E-005   5.4133335426851737E-004   4.5426679235459781E-002
 chl2c          26   4.7955660680174553E-002   4.7955660680174553E-002  0.49427735000000000        2.9723109186545296E-014   6.4188192516230141E-017
 chl          26   2.5959998652161739E-005   5.4133335426851737E-004   4.7955660680174553E-002
 chl2c          27   4.5333133499525620E-002   4.5333133499525620E-002  0.30964730000000001        2.9723109186545296E-014   9.8632749353195747E-017
 chl          27   2.4540337216800696E-005   5.4133335426851737E-004   4.5333133499525620E-002
 chl2c          28   3.1209236063453518E-002   3.1209236063453518E-002  0.28776342500000002        6.3276549603110913E-014   9.8080386759864198E-017
 chl          28   1.6894600442387272E-005   5.4133335426851737E-004   3.1209236063453518E-002
 chl2c          29  0.68676296820900473        3.7743217595736761E-002  0.68676297499999994        7.7506900137605229E-014   2.6914770686050210E-006
 chl          29   3.7235364811287507E-004   5.4218655540488533E-004  0.68676296820900473     
 chl2c          30   2.5380056985171612E-002   2.5380056985171612E-002  0.38930277499999999        2.1272585133753981E-013   1.4964506801990571E-016
 chl          30   1.3739071379309063E-005   5.4133335426851737E-004   2.5380056985171612E-002
 chl2c          31  0.63559384338035230        3.7576959810037038E-002  0.63559385000000002        7.7506900137605229E-014   2.3650202176140584E-006
 chl          31   3.4461043657894538E-004   5.4218655540488533E-004  0.63559384338035230     
 chl2c          32  0.24722667429302733        2.0893126428578448E-002  0.24722667500000001        7.7506900137605229E-014   3.3504135667252876E-006
 chl          32   1.3383204485969472E-004   5.4133335426851737E-004  0.24722667429302733     
 chl2c          33  0.60343136839777356        3.7458922634011876E-002  0.60343137499999999        7.7506900137605229E-014   2.1373503934997228E-006
 chl          33   3.2717237505484523E-004   5.4218655540488533E-004  0.60343136839777356     
 chl2c          34  0.38241018882929279        2.5350269098008315E-002  0.38241020000000003        2.1272585133753981E-013   1.3924144668988866E-006
 chl          34   2.0701139022541817E-004   5.4133335426851737E-004  0.38241018882929279     
 chl2c          35   2.5740370148566064E-002   2.5740370148566064E-002  0.49574644999999995        2.1272585133753981E-013   1.0759653916944957E-016
 chl          35   1.3934120912636481E-005   5.4133335426851737E-004   2.5740370148566064E-002
 chl2c          36   3.7770393924465726E-002   3.7770393924465726E-002  0.69587337500000002        7.7506900137605229E-014   1.1155179279162366E-016
 chl          36   2.0478599782002753E-005   5.4218655550578639E-004   3.7770393924465726E-002
 chl2c          37   2.1353674699533250E-002   2.1353674699533250E-002  0.33194060000000003        7.7506900137605229E-014   9.8423444070491741E-017
 chl          37   1.1559456351057109E-005   5.4133335426851737E-004   2.1353674699533250E-002
 chl2c          38   2.1543295686358745E-002   2.1543295686358745E-002  0.38455722500000000        7.7506900137605229E-014   1.5279789699296640E-016
 chl          38   1.1662104515895060E-005   5.4133335426851737E-004   2.1543295686358745E-002
 chl2c          39   2.5670077108751441E-002   2.5670077108751441E-002  0.47091117500000002        2.1272585133753981E-013   1.2262514422097394E-016
 chl          39   1.3896068945611902E-005   5.4133335426851737E-004   2.5670077108751441E-002
 chl2c          40   3.7687445774703773E-002   3.7687445774703773E-002  0.66875547499999999        7.7506900137605229E-014   1.4714339403691610E-016
 chl          40   2.0433626410397741E-005   5.4218655550578639E-004   3.7687445774703773E-002
 chl2c          41   2.5582381488167241E-002   2.5582381488167241E-002  0.44304987499999998        2.1272585133753981E-013   8.8537758651167489E-017
 chl          41   1.3848596381166397E-005   5.4133335426851737E-004   2.5582381488167241E-002
 chl2c          42   3.7949995630725070E-002   3.7949995630725070E-002  0.76234377499999995        7.7506900137605229E-014   1.2395348175920334E-016
 chl          42   2.0575977408653273E-005   5.4218655540488533E-004   3.7949995630725070E-002
 chl2c          43  0.29539917223358653        2.1185090152268007E-002  0.29539925000000000        7.7506900137605229E-014   4.3484748679275671E-008
 chl          43   1.5990942475335086E-004   5.4133335426851737E-004  0.29539917223358653     
 chl2c          44   3.7536352708156646E-002   3.7536352708156646E-002  0.62417262500000004        7.7506900137605229E-014   1.0578360342896902E-016
 chl          44   2.0351705777298291E-005   5.4218655540488533E-004   3.7536352708156646E-002
 chl2c          45  0.37662250402889780        4.6544927192009838E-002  0.37662252499999999        2.9723109186545296E-014   1.0052070864515056E-007
 chl          45   2.0387832339897145E-004   5.4133335426851737E-004  0.37662250402889780     
 chl2c          46  0.51876034615447486        3.7083195475449568E-002  0.51876034999999998        7.7506900137605229E-014   2.7119911247425870E-006
 chl          46   2.8126488516214067E-004   5.4218655540488533E-004  0.51876034615447486     
 chl2c          47   3.7519784612651236E-002   3.7519784612651236E-002  0.61962282499999999        7.7506900137605229E-014   1.3532088177639316E-016
 chl          47   2.0342722778666595E-005   5.4218655540488533E-004   3.7519784612651236E-002
 chl2c          48   3.7823212136301673E-002   3.7823212136301673E-002  0.71424949999999998        7.7506900137605229E-014   1.3010180635055601E-016
 chl          48   2.0507237102529659E-005   5.4218655540488533E-004   3.7823212136301673E-002
 chl2c          49   3.7152990741888416E-002   3.7152990741888416E-002  0.53276120000000005        7.7506900137605229E-014   1.2101302213055974E-016
 chl          49   2.0143852073334074E-005   5.4218655540488533E-004   3.7152990741888416E-002
 chl2c          50  0.38132569771061148        2.1533072915600981E-002  0.38132569999999999        7.7506900137605229E-014   2.4614046784887720E-006
 chl          50   2.0642431901046800E-004   5.4133335426851737E-004  0.38132569771061148     
 chl2c          51   2.0700971146093840E-002   2.0700971146093840E-002  0.22275920000000002        7.7506900137605229E-014   1.6255451979027620E-016
 chl          51   1.1206126147130774E-005   5.4133335426851737E-004   2.0700971146093840E-002
 chl2c          52   3.7581825176985564E-002   3.7581825176985564E-002  0.63698869999999996        7.7506900137605229E-014   1.4408713027971537E-016
 chl          52   2.0376360342330443E-005   5.4218655550578639E-004   3.7581825176985564E-002
 chl2c          53   3.7925801262726190E-002   3.7925801262726190E-002  0.75269794999999995        7.7506900137605229E-014   1.2892240491765080E-016
 chl          53   2.0562859551434516E-005   5.4218655550578639E-004   3.7925801262726190E-002
 chl2c          54   3.7082433371327092E-002   3.7082433371327092E-002  0.51861124999999997        7.7506900137605229E-014   1.0561262149029663E-016
 chl          54   2.0105596815631005E-005   5.4218655540488533E-004   3.7082433371327092E-002
 chl2c          55  0.57808279581637989        3.7357235588660491E-002  0.57808280000000001        7.7506900137605229E-014   3.0955528075601447E-006
 chl          55   3.1342871980250865E-004   5.4218655540488533E-004  0.57808279581637989     
 chl2c          56   3.7507394187257688E-002   3.7507394187257688E-002  0.61626080000000005        7.7506900137605229E-014   1.4447109094304375E-016
 chl          56   2.0336004860387002E-005   5.4218655550578639E-004   3.7507394187257688E-002
 chl2c          57  0.68163461596176611        3.7727617852646313E-002  0.68163462500000005        7.7506900137605229E-014   1.9921868777282255E-006
 chl          57   3.6957312447304184E-004   5.4218655540488533E-004  0.68163461596176611     
 chl2c          58  0.69416801665205485        3.7765358178394853E-002  0.69416802499999997        7.7506900137605229E-014   2.2369691556256363E-006
 chl          58   3.7636856589086100E-004   5.4218655550578639E-004  0.69416801665205485     
 chl2c          59  0.53705032804202057        3.7173699120809672E-002  0.53705127500000005        7.7506900137605229E-014   1.1803489073871434E-008
 chl          59   2.9118146744016682E-004   5.4218655540488533E-004  0.53705032804202057     
 chl2c          60  0.64452153864286932        3.7607757740906807E-002  0.64452155000000000        7.7506900137605229E-014   1.4174789811675074E-006
 chl          60   3.4945091292103403E-004   5.4218655540488533E-004  0.64452153864286932     
 chl2c          61   3.7805373434125003E-002   3.7805373434125003E-002  0.70794139999999994        7.7506900137605229E-014   1.2615582898403787E-016
 chl          61   2.0497565198043597E-005   5.4218655540488533E-004   3.7805373434125003E-002
 chl2c          62   3.7956103087269030E-002   3.7956103087269030E-002  0.76481592499999995        7.7506900137605229E-014   1.0282090455789311E-016
 chl          62   2.0579288789479130E-005   5.4218655540488533E-004   3.7956103087269030E-002
 chl2c          63  0.72597904060788654        3.7855601011927406E-002  0.72597904999999996        7.7506900137605229E-014   2.1746792437940975E-006
 chl          63   3.9361607539658541E-004   5.4218655550578639E-004  0.72597904060788654     
 chl2c          64   2.5708982294816416E-002   2.5708982294816416E-002  0.48435739999999999        2.1272585133753981E-013   8.6121460830634581E-017
 chl          64   1.3917129620482896E-005   5.4133335426851737E-004   2.5708982294816416E-002
 chl2c          65   3.7953597170552002E-002   3.7953597170552002E-002  0.76379975000000000        7.7506900137605229E-014   1.1367979421846075E-016
 chl          65   2.0577930118955749E-005   5.4218655550578639E-004   3.7953597170552002E-002
 chl2c          66   3.1840477731474713E-002   3.1840477731474713E-002  0.35213202499999996        6.3276549603110913E-014   6.9536221792440203E-017
 chl          66   1.7236312611891240E-005   5.4133335426851737E-004   3.1840477731474713E-002
 chl2c          67   3.7937587124568600E-002   3.7937587124568600E-002  0.75736760000000003        7.7506900137605229E-014   1.2032006914893437E-016
 chl          67   2.0569249683442578E-005   5.4218655540488533E-004   3.7937587124568600E-002
 chl2c          68  0.72590779013994156        3.7855407263856986E-002  0.72590779999999999        7.7506900137605229E-014   2.0710653467634285E-006
 chl          68   3.9357744435079215E-004   5.4218655550578639E-004  0.72590779013994156     
 chl2c          69  0.45524217143946688        2.1732330561541505E-002  0.45524217500000003        7.7506900137605229E-014   2.2556946752164022E-006
 chl          69   2.4643777166981004E-004   5.4133335426851737E-004  0.45524217143946688     
 chl2c          70   3.2658010878182209E-002   3.2658010878182209E-002  0.48694062500000002        6.3276549603110913E-014   1.1849987612334496E-016
 chl          70   1.7678870572424102E-005   5.4133335426851737E-004   3.2658010878182209E-002
 chl2c          71   4.3481058864416305E-002   4.3481058864416305E-002  0.23986107500000001        2.9723109186545296E-014   7.6620554111311927E-017
 chl          71   2.3537747442221328E-005   5.4133335426851737E-004   4.3481058864416305E-002
 chl2c          72   3.7549776402781669E-002   3.7549776402781669E-002  0.62790522500000001        7.7506900137605229E-014   1.4493071844353226E-016
 chl          72   2.0358983927836651E-005   5.4218655550578639E-004   3.7549776402781669E-002
 chl2c          73   3.1852614277819484E-002   3.1852614277819484E-002  0.35362212500000001        6.3276549603110913E-014   8.4603095946177439E-017
 chl          73   1.7242882529233288E-005   5.4133335426851737E-004   3.1852614277819484E-002
 chl2c          74  0.64719589037764869        3.7616827685877569E-002  0.64719590000000005        7.7506900137605229E-014   1.6869440195412810E-006
 chl          74   3.5090091047605514E-004   5.4218655540488533E-004  0.64719589037764869     
 chl2c          75   3.7826830779512356E-002   3.7826830779512356E-002  0.71554212500000003        7.7506900137605229E-014   1.1406852737304550E-016
 chl          75   2.0509199086044064E-005   5.4218655550578639E-004   3.7826830779512356E-002
 chl2c          76  0.55513977067326581        3.7257729557919804E-002  0.55513977500000000        7.7506900137605229E-014   2.7602908890414580E-006
 chl          76   3.0098932008561019E-004   5.4218655550578639E-004  0.55513977067326581     
 chl2c          77  0.52973028654682519        3.7138172437479272E-002  0.52973029999999999        7.7506900137605229E-014   8.0834211445878104E-007
 chl          77   2.8721263935646600E-004   5.4218655540488533E-004  0.52973028654682519     
 chl2c          78  0.45117492307619622        4.7515248899399322E-002  0.45117492500000000        2.9723109186545296E-014   1.5725098532315805E-006
 chl          78   2.4423603447067761E-004   5.4133335426851737E-004  0.45117492307619622     
 prod   3.6107563749257661E-007   2.7890381449670971E-007   10.000000000000000     
 dcdom   1.1797399039895405E-012  -2.5407872079976020E-010
 chl2c           1  0.60826436598869271        3.7477407714772232E-002  0.60826437499999997        1.1257168742103167E-014   2.3109797407399948E-007
 chl           1   2.3714333914516433E-004   3.8986886690247556E-004  0.60826436598869271     
 chl2c           2  0.48302389848712585        3.2640259920490348E-002  0.48302390000000001        9.2179910011585806E-015   7.1078903090806046E-007
 chl           2   1.8785401534345626E-004   3.8891246568095673E-004  0.48302389848712585     
 chl2c           3   3.7922212503796585E-002   3.7922212503796585E-002  0.75128689999999998        1.1257168742103167E-014   1.2302184981689391E-016
 chl           3   1.4784690019290064E-005   3.8986886690247556E-004   3.7922212503796585E-002
 chl2c           4  0.77318742375031257        3.7976509103863923E-002  0.77318742499999993        1.1257168742103167E-014   2.6925723206745841E-006
 chl           4   3.0144170480077856E-004   3.8986886690247556E-004  0.77318742375031257     
 chl2c           5  0.48489679781741263        2.5710500362372445E-002  0.48489679999999996        3.0889676830124928E-014   1.6638354663378505E-006
 chl           5   1.8858240923997030E-004   3.8891246568095673E-004  0.48489679781741263     
 chl2c           6   3.1261039902252048E-002   3.1261039902252048E-002  0.29222855000000003        9.2179910011585806E-015   1.0121001907701333E-016
 chl           6   1.2157808108135619E-005   3.8891246568095673E-004   3.1261039902252048E-002
 chl2c           7  0.22770739986651065        4.3064391842467263E-002  0.22770740000000000        4.3322219320485365E-015   8.4137253246751062E-007
 chl           7   8.8558246335884215E-005   3.8891246568095673E-004  0.22770739986651065     
 chl2c           8  0.49578364763102561        4.7969800906495587E-002  0.49578364999999996        4.3322219320485365E-015   2.2475260378866697E-007
 chl           8   1.9281644084448080E-004   3.8891246568095673E-004  0.49578364763102561     
 chl2c           9  0.28700202432431660        2.4803669054600401E-002  0.28700202499999999        3.0889676830124928E-014   1.8828254135925620E-006
 chl           9   1.1161866493539589E-004   3.8891246568095673E-004  0.28700202432431660     
 chl2c          10  0.39094662396486440        2.5387016219684602E-002  0.39094662499999999        3.0889676830124928E-014   2.2804526771081151E-006
 chl          10   1.5204401547582122E-004   3.8891246568095673E-004  0.39094662396486440     
 chl2c          11   2.1820572217820047E-002   2.1820572217820047E-002  0.49737575000000001        1.1257168742103167E-014   1.1385896649937252E-016
 chl          11   8.4862925438017761E-006   3.8891246568095673E-004   2.1820572217820047E-002
 chl2c          12   4.5290941298723353E-002   4.5290941298723353E-002  0.30768942500000002        4.3322219320485365E-015   4.0570430625804751E-017
 chl          12   1.7614211653497972E-005   3.8891246568095673E-004   4.5290941298723353E-002
 chl2c          13   3.7935816987997487E-002   3.7935816987997487E-002  0.75666275000000005        1.1257168742103167E-014   1.0218647583151461E-016
 chl          13   1.4789993981453013E-005   3.8986886683190240E-004   3.7935816987997487E-002
 chl2c          14   4.6856526101924839E-002   4.6856526101924839E-002  0.39804095000000000        4.3322219320485365E-015   7.8845982689643725E-017
 chl          14   1.8223087099543698E-005   3.8891246568095673E-004   4.6856526101924839E-002
 chl2c          15  0.25607262486344440        2.0954299823745293E-002  0.25607262500000000        1.1257168742103167E-014   2.7028134321847978E-006
 chl          15   9.9589835929036832E-005   3.8891246568095673E-004  0.25607262486344440     
 chl2c          16   3.7823443882273475E-002   3.7823443882273475E-002  0.71433214999999994        1.1257168742103167E-014   1.2810626199012642E-016
 chl          16   1.4746183208731330E-005   3.8986886690247556E-004   3.7823443882273475E-002
 chl2c          17   3.7542254757581245E-002   3.7542254757581245E-002  0.62580860000000005        1.1257168742103167E-014   1.2804168157642680E-016
 chl          17   1.4636556323302272E-005   3.8986886690247556E-004   3.7542254757581245E-002
 chl2c          18   2.5694475239060960E-002   2.5694475239060960E-002  0.47925950000000000        3.0889676830124928E-014   1.1892463146776722E-016
 chl          18   9.9929017196014887E-006   3.8891246568095673E-004   2.5694475239060960E-002
 chl2c          19  0.63367129870086292        3.7570220750293731E-002  0.63367130000000005        1.1257168742103167E-014   1.7396915281147372E-006
 chl          19   2.4704871121312554E-004   3.8986886690247556E-004  0.63367129870086292     
 chl2c          20   3.7020645196759419E-002   3.7020645196759419E-002  0.50678202500000002        1.1257168742103167E-014   1.1258595498554808E-016
 chl          20   1.4433196992246505E-005   3.8986886683190240E-004   3.7020645196759419E-002
 chl2c          21  0.71973184797911827        3.7838475073783531E-002  0.71973185000000006        1.1257168742103167E-014   1.4427787060458296E-006
 chl          21   2.8060103999444987E-004   3.8986886683190240E-004  0.71973184797911827     
 chl2c          22  0.64616892412561011        3.7613353106285476E-002  0.64616892500000001        1.1257168742103167E-014   2.6877334938950631E-006
 chl          22   2.5192114627644333E-004   3.8986886690247556E-004  0.64616892412561011     
 chl2c          23   3.2286562315070731E-002   3.2286562315070731E-002  0.41564179999999995        9.2179910011585806E-015   5.4834397641371133E-017
 chl          23   1.2556646558316016E-005   3.8891246568095673E-004   3.2286562315070731E-002
 chl2c          24   3.7348402796863071E-002   3.7348402796863071E-002  0.57597492500000003        1.1257168742103167E-014   9.1291616625517296E-017
 chl          24   1.4560979476394460E-005   3.8986886683190240E-004   3.7348402796863071E-002
 chl2c          25   4.5426679235459781E-002   4.5426679235459781E-002  0.31406487500000002        4.3322219320485365E-015   4.2778154081236274E-017
 chl          25   1.7667001829160581E-005   3.8891246568095673E-004   4.5426679235459781E-002
 chl2c          26   4.7955660680174553E-002   4.7955660680174553E-002  0.49427735000000000        4.3322219320485365E-015   3.9103261701263864E-017
 chl          26   1.8650554238485994E-005   3.8891246568095673E-004   4.7955660680174553E-002
 chl2c          27   4.5333133499525620E-002   4.5333133499525620E-002  0.30964730000000001        4.3322219320485365E-015   7.8209689039648918E-017
 chl          27   1.7630620726344486E-005   3.8891246568095673E-004   4.5333133499525620E-002
 chl2c          28   3.1209236063453518E-002   3.1209236063453518E-002  0.28776342500000002        9.2179910011585806E-015   7.7756344163489330E-017
 chl          28   1.2137660949456743E-005   3.8891246568095673E-004   3.1209236063453518E-002
 chl2c          29  0.68676297384411444        3.7743217595736761E-002  0.68676297499999994        1.1257168742103167E-014   2.2966673156594072E-006
 chl          29   2.6774750239471235E-004   3.8986886683190240E-004  0.68676297384411444     
 chl2c          30   2.5380056985171612E-002   2.5380056985171612E-002  0.38930277499999999        3.0889676830124928E-014   1.3055435707371638E-016
 chl          30   9.8706205412262805E-006   3.8891246568095673E-004   2.5380056985171612E-002
 chl2c          31  0.63559384881780612        3.7576959810037038E-002  0.63559385000000002        1.1257168742103167E-014   1.9234009515601550E-006
 chl          31   2.4779825360392554E-004   3.8986886683190240E-004  0.63559384881780612     
 chl2c          32  0.24722667488079625        2.0893126428578448E-002  0.24722667500000001        1.1257168742103167E-014   2.8860240628181934E-006
 chl          32   9.6149535709994720E-005   3.8891246568095673E-004  0.24722667488079625     
 chl2c          33  0.60343137391869739        3.7458922634011876E-002  0.60343137499999999        1.1257168742103167E-014   1.8954297721332386E-006
 chl          33   2.3525910596050052E-004   3.8986886683190240E-004  0.60343137391869739     
 chl2c          34  0.38241019782506519        2.5350269098008315E-002  0.38241020000000003        3.0889676830124928E-014   1.0384750024785703E-006
 chl          34   1.4872409293768853E-004   3.8891246568095673E-004  0.38241019782506519     
 chl2c          35   2.5740370148566064E-002   2.5740370148566064E-002  0.49574644999999995        3.0889676830124928E-014   9.3856703617122617E-017
 chl          35   1.0010750822019323E-005   3.8891246568095673E-004   2.5740370148566064E-002
 chl2c          36   3.7770393924465726E-002   3.7770393924465726E-002  0.69587337500000002        1.1257168742103167E-014   9.7314777488166692E-017
 chl          36   1.4725500681791600E-005   3.8986886690247556E-004   3.7770393924465726E-002
 chl2c          37   2.1353674699533250E-002   2.1353674699533250E-002  0.33194060000000003        1.1257168742103167E-014   8.5854873580384702E-017
 chl          37   8.3047102787445391E-006   3.8891246568095673E-004   2.1353674699533250E-002
 chl2c          38   2.2310023016301812E-002   2.1543295686358745E-002  0.38455722500000000        1.1257168742103167E-014   1.3330766896043298E-016
 chl          38   8.6766460606688332E-006   3.8891246568095673E-004   2.2310023016301812E-002
 chl2c          39   2.5670077108751441E-002   2.5670077108751441E-002  0.47091117500000002        3.0889676830124928E-014   1.0696882397749920E-016
 chl          39   9.9834129825848084E-006   3.8891246568095673E-004   2.5670077108751441E-002
 chl2c          40   3.7687445774703773E-002   3.7687445774703773E-002  0.66875547499999999        1.1257168742103167E-014   1.2835561327136553E-016
 chl          40   1.4693161780632251E-005   3.8986886690247556E-004   3.7687445774703773E-002
 chl2c          41   2.5582381488167241E-002   2.5582381488167241E-002  0.44304987499999998        3.0889676830124928E-014   7.7232327365563224E-017
 chl          41   9.9493070625539851E-006   3.8891246568095673E-004   2.5582381488167241E-002
 chl2c          42   3.7949995630725070E-002   3.7949995630725070E-002  0.76234377499999995        1.1257168742103167E-014   1.0813068154195708E-016
 chl          42   1.4795521792826430E-005   3.8986886683190240E-004   3.7949995630725070E-002
 chl2c          43  0.29539924757267311        2.1185090152268007E-002  0.29539925000000000        1.1257168742103167E-014   2.0234369664207978E-007
 chl          43   1.1488444973378767E-004   3.8891246568095673E-004  0.29539924757267311     
 chl2c          44   3.7536352708156646E-002   3.7536352708156646E-002  0.62417262500000004        1.1257168742103167E-014   9.2284121102122701E-017
 chl          44   1.4634255295331642E-005   3.8986886683190240E-004   3.7536352708156646E-002
 chl2c          45   4.6544927192009838E-002   4.6544927192009838E-002  0.37662252499999999        4.3322219320485365E-015   5.0888114186031544E-017
 chl          45   1.8101902399185157E-005   3.8891246568095673E-004   4.6544927192009838E-002
 chl2c          46  0.51876034933346704        3.7083195475449568E-002  0.51876034999999998        1.1257168742103167E-014   2.2725378564118943E-006
 chl          46   2.0224850955196064E-004   3.8986886683190240E-004  0.51876034933346704     
 chl2c          47   3.7519784612651236E-002   3.7519784612651236E-002  0.61962282499999999        1.1257168742103167E-014   1.1804458666427921E-016
 chl          47   1.4627795910711385E-005   3.8986886683190240E-004   3.7519784612651236E-002
 chl2c          48   3.7823212136301673E-002   3.7823212136301673E-002  0.71424949999999998        1.1257168742103167E-014   1.1349283502813759E-016
 chl          48   1.4746092855522592E-005   3.8986886683190240E-004   3.7823212136301673E-002
 chl2c          49   3.7152990741888416E-002   3.7152990741888416E-002  0.53276120000000005        1.1257168742103167E-014   1.0556621675895752E-016
 chl          49   1.4484794399956197E-005   3.8986886683190240E-004   3.7152990741888416E-002
 chl2c          50  0.38132569961828522        2.1533072915600981E-002  0.38132569999999999        1.1257168742103167E-014   2.1441361527325329E-006
 chl          50   1.4830231806606316E-004   3.8891246568095673E-004  0.38132569961828522     
 chl2c          51   2.2637443469160200E-002   2.0700971146093840E-002  0.22275920000000002        1.1257168742103167E-014   1.4182993458617534E-016
 chl          51   8.8039839563043641E-006   3.8891246568095673E-004   2.2637443469160200E-002
 chl2c          52   3.7581825176985564E-002   3.7581825176985564E-002  0.63698869999999996        1.1257168742103167E-014   1.2569005796019009E-016
 chl          52   1.4651983597878290E-005   3.8986886690247556E-004   3.7581825176985564E-002
 chl2c          53   3.7925801262726190E-002   3.7925801262726190E-002  0.75269794999999995        1.1257168742103167E-014   1.1246423876182422E-016
 chl          53   1.4786089164667537E-005   3.8986886690247556E-004   3.7925801262726190E-002
 chl2c          54   3.7082433371327092E-002   3.7082433371327092E-002  0.51861124999999997        1.1257168742103167E-014   9.2135000623544729E-017
 chl          54   1.4457286277848816E-005   3.8986886683190240E-004   3.7082433371327092E-002
 chl2c          55  0.57808279929441764        3.7357235588660491E-002  0.57808280000000001        1.1257168742103167E-014   2.6658247771896913E-006
 chl          55   2.2537648589592867E-004   3.8986886683190240E-004  0.57808279929441764     
 chl2c          56   3.7507394187257688E-002   3.7507394187257688E-002  0.61626080000000005        1.1257168742103167E-014   1.2602493235804229E-016
 chl          56   1.4622965272250653E-005   3.8986886690247556E-004   3.7507394187257688E-002
 chl2c          57  0.68163462331252966        3.7727617852646313E-002  0.68163462500000005        1.1257168742103167E-014   1.5497666598477146E-006
 chl          57   2.6574811818424657E-004   3.8986886683190240E-004  0.68163462331252966     
 chl2c          58  0.69416802367606290        3.7765358178394853E-002  0.69416802499999997        1.1257168742103167E-014   2.0486181665069228E-006
 chl          58   2.7063450083051748E-004   3.8986886690247556E-004  0.69416802367606290     
 chl2c          59  0.53705126140827608        3.7173699120809672E-002  0.53705127500000005        1.1257168742103167E-014   1.1944174234982017E-007
 chl          59   2.0937956671588840E-004   3.8986886683190240E-004  0.53705126140827608     
 chl2c          60  0.64452154824202368        3.7607757740906807E-002  0.64452155000000000        1.1257168742103167E-014   1.3300288084273896E-006
 chl          60   2.5127888566186109E-004   3.8986886683190240E-004  0.64452154824202368     
 chl2c          61   3.7805373434125003E-002   3.7805373434125003E-002  0.70794139999999994        1.1257168742103167E-014   1.1005141751523117E-016
 chl          61   1.4739138100919222E-005   3.8986886683190240E-004   3.7805373434125003E-002
 chl2c          62   3.7956103087269030E-002   3.7956103087269030E-002  0.76481592499999995        1.1257168742103167E-014   8.9700221390156405E-017
 chl          62   1.4797902899988449E-005   3.8986886683190240E-004   3.7956103087269030E-002
 chl2c          63  0.72597904843940453        3.7855601011927406E-002  0.72597904999999996        1.1257168742103167E-014   1.9008902124428438E-006
 chl          63   2.8303662901000805E-004   3.8986886690247556E-004  0.72597904843940453     
 chl2c          64   2.5708982294816416E-002   2.5708982294816416E-002  0.48435739999999999        3.0889676830124928E-014   7.5124874860819827E-017
 chl          64   9.9985436944251135E-006   3.8891246568095673E-004   2.5708982294816416E-002
 chl2c          65  0.76379970658575336        3.7953597170552002E-002  0.76379975000000000        1.1257168742103167E-014   7.5635539620220048E-008
 chl          65   2.9778172614703096E-004   3.8986886690247556E-004  0.76379970658575336     
 chl2c          66   3.1840477731474713E-002   3.1840477731474713E-002  0.35213202499999996        9.2179910011585806E-015   4.2543864034008850E-017
 chl          66   1.2383158703007426E-005   3.8891246568095673E-004   3.1840477731474713E-002
 chl2c          67   3.7937587124568600E-002   3.7937587124568600E-002  0.75736760000000003        1.1257168742103167E-014   1.0496187137866751E-016
 chl          67   1.4790684102592131E-005   3.8986886683190240E-004   3.7937587124568600E-002
 chl2c          68  0.72590779846575082        3.7855407263856986E-002  0.72590779999999999        1.1257168742103167E-014   1.9331528670646229E-006
 chl          68   2.8300885086351285E-004   3.8986886690247556E-004  0.72590779846575082     
 chl2c          69  0.45524217439173070        2.1732330561541505E-002  0.45524217500000003        1.1257168742103167E-014   1.9177333135154012E-006
 chl          69   1.7704935652464808E-004   3.8891246568095673E-004  0.45524217439173070     
 chl2c          70   3.2658010878182209E-002   3.2658010878182209E-002  0.48694062500000002        9.2179910011585806E-015   9.4630672636164035E-017
 chl          70   1.2701107534869350E-005   3.8891246568095673E-004   3.2658010878182209E-002
 chl2c          71   4.3481058864416305E-002   4.3481058864416305E-002  0.23986107500000001        4.3322219320485365E-015   4.7147431832960758E-017
 chl          71   1.6910325813378964E-005   3.8891246568095673E-004   4.3481058864416305E-002
 chl2c          72   3.7549776402781669E-002   3.7549776402781669E-002  0.62790522500000001        1.1257168742103167E-014   1.2642580066706991E-016
 chl          72   1.4639488778593805E-005   3.8986886690247556E-004   3.7549776402781669E-002
 chl2c          73   3.1852614277819484E-002   3.1852614277819484E-002  0.35362212500000001        9.2179910011585806E-015   5.2398445203613364E-017
 chl          73   1.2387878757171222E-005   3.8891246568095673E-004   3.1852614277819484E-002
 chl2c          74  0.64719589851555126        3.7616827685877569E-002  0.64719590000000005        1.1257168742103167E-014   1.5882010843694883E-006
 chl          74   2.5232153157251285E-004   3.8986886683190240E-004  0.64719589851555126     
 chl2c          75   3.7826830779512356E-002   3.7826830779512356E-002  0.71554212500000003        1.1257168742103167E-014   9.9509706411992197E-017
 chl          75   1.4747503654520169E-005   3.8986886690247556E-004   3.7826830779512356E-002
 chl2c          76  0.55513977427002825        3.7257729557919804E-002  0.55513977500000000        1.1257168742103167E-014   2.3762811134345516E-006
 chl          76   2.1643171476715196E-004   3.8986886690247556E-004  0.55513977427002825     
 chl2c          77  0.52973029807567296        3.7138172437479272E-002  0.52973029999999999        1.1257168742103167E-014   8.2078600336018783E-007
 chl          77   2.0652535103728850E-004   3.8986886683190240E-004  0.52973029807567296     
 chl2c          78  0.45117492458313913        4.7515248899399322E-002  0.45117492500000000        4.3322219320485365E-015   1.0577412436027182E-006
 chl          78   1.7546755237304835E-004   3.8891246568095673E-004  0.45117492458313913     
 prod   2.0919011727660889E-007   4.0626136659030351E-008   10.000000000000000     
 dcdom   1.2038545221138339E-012  -2.3606706667612967E-010
 chl2c           1  0.60826437390195887        3.7477407714772232E-002  0.60826437499999997        1.7668639020433130E-015   2.9767288690832322E-007
 chl           1   1.4448858825838446E-004   2.3754241487382159E-004  0.60826437390195887     
 chl2c           2  0.48302389911212157        3.2640259920490348E-002  0.48302390000000001        1.4476514949165303E-015   1.9020316966498672E-007
 chl           2   1.1427688171315172E-004   2.3658639235700694E-004  0.48302389911212157     
 chl2c           3  0.10336622037773641        3.7922212503796585E-002  0.75128689999999998        1.7668639020433130E-015   1.0588531024939666E-016
 chl           3   2.4553861604907131E-005   2.3754241487382159E-004  0.10336622037773641     
 chl2c           4  0.77318742477167612        3.7976509103863923E-002  0.77318742499999993        1.7668639020433130E-015   2.3130852228349135E-006
 chl           4   1.8366480803033521E-004   2.3754241487382159E-004  0.77318742477167612     
 chl2c           5  0.48489679957006748        2.5710500362372445E-002  0.48489679999999996        4.8596241310147212E-015   1.3288348536934466E-006
 chl           5   1.1471998447574094E-004   2.3658639235700694E-004  0.48489679957006748     
 chl2c           6   7.3615198111962613E-002   3.1261039902252048E-002  0.29222855000000003        1.4476514949165303E-015   7.1227462495958692E-017
 chl           6   1.7416354143955583E-005   2.3658639235700694E-004   7.3615198111962613E-002
 chl2c           7  0.22770739992666206        4.3064391842467263E-002  0.22770740000000000        6.7994375013966169E-016   2.4036345236677082E-007
 chl           7   5.3872472261643165E-005   2.3658639235700694E-004  0.22770739992666206     
 chl2c           8  0.49578364901454458        4.7969800906495587E-002  0.49578364999999996        6.7994375013966169E-016   8.4798942256462431E-008
 chl           8   1.1729566490994367E-004   2.3658639235700694E-004  0.49578364901454458     
 chl2c           9  0.28700202488169824        2.4803669054600401E-002  0.28700202499999999        4.8596241310147212E-015   1.6918094301716599E-006
 chl           9   6.7900773665916932E-005   2.3658639235700694E-004  0.28700202488169824     
 chl2c          10  0.39094662480258940        2.5387016219684602E-002  0.39094662499999999        4.8596241310147212E-015   1.8812090244191839E-006
 chl          10   9.2492651566193003E-005   2.3658639235700694E-004  0.39094662480258940     
 chl2c          11   9.0173925153635828E-002   2.1820572217820047E-002  0.49737575000000001        1.7668639020433130E-015   9.7303613372361106E-017
 chl          11   2.1333923636769465E-005   2.3658639235700694E-004   9.0173925153635828E-002
 chl2c          12   4.5290941298723353E-002   4.5290941298723353E-002  0.30768942500000002        6.7994375013966169E-016   1.1757387386897520E-017
 chl          12   1.0715220408317933E-005   2.3658639235700694E-004   4.5290941298723353E-002
 chl2c          13   8.8129813116534200E-002   3.7935816987997487E-002  0.75666275000000005        1.7668639020433130E-015   8.8120204686922088E-017
 chl          13   2.0934568626397507E-005   2.3754241483203524E-004   8.8129813116534200E-002
 chl2c          14  0.11558041049324044        4.6856526101924839E-002  0.39804095000000000        6.7994375013966169E-016   5.5372890291823688E-017
 chl          14   2.7344752345737705E-005   2.3658639235700694E-004  0.11558041049324044     
 chl2c          15  0.25607262497424910        2.0954299823745293E-002  0.25607262500000000        1.7668639020433130E-015   2.2496104515089240E-006
 chl          15   6.0583298524046390E-005   2.3658639235700694E-004  0.25607262497424910     
 chl2c          16  0.10620430056284998        3.7823443882273475E-002  0.71433214999999994        1.7668639020433130E-015   1.1020987498872320E-016
 chl          16   2.5228026025684554E-005   2.3754241487382159E-004  0.10620430056284998     
 chl2c          17  0.10397351984784874        3.7542254757581245E-002  0.62580860000000005        1.7668639020433130E-015   1.1015497210497454E-016
 chl          17   2.4698120987589206E-005   2.3754241487382159E-004  0.10397351984784874     
 chl2c          18   3.8440181401796870E-002   2.5694475239060960E-002  0.47925950000000000        4.8596241310147212E-015   1.0154726341545002E-016
 chl          18   9.0944238394000353E-006   2.3658639235700694E-004   3.8440181401796870E-002
 chl2c          19  0.63367129976803205        3.7570220750293731E-002  0.63367130000000005        1.7668639020433130E-015   1.5292314097785046E-006
 chl          19   1.5052381078313164E-004   2.3754241487382159E-004  0.63367129976803205     
 chl2c          20   9.0243254526625405E-002   3.7020645196759419E-002  0.50678202500000002        1.7668639020433130E-015   9.6995955002575655E-017
 chl          20   2.1436600602556593E-005   2.3754241483203524E-004   9.0243254526625405E-002
 chl2c          21  0.71973184965610004        3.7838475073783531E-002  0.71973185000000006        1.7668639020433130E-015   1.3307065801612073E-006
 chl          21   1.7096684159883735E-004   2.3754241483203524E-004  0.71973184965610004     
 chl2c          22  0.64616892483863764        3.7613353106285476E-002  0.64616892500000001        1.7668639020433130E-015   2.2859300675780254E-006
 chl          22   1.5349252682259090E-004   2.3754241487382159E-004  0.64616892483863764     
 chl2c          23   3.2286562315070731E-002   3.2286562315070731E-002  0.41564179999999995        1.4476514949165303E-015   1.6212786841846832E-017
 chl          23   7.6385612997322781E-006   2.3658639235700694E-004   3.2286562315070731E-002
 chl2c          24   7.7239100176065917E-002   3.7348402796863071E-002  0.57597492500000003        1.7668639020433130E-015   7.8803103129957537E-017
 chl          24   1.8347562375276175E-005   2.3754241483203524E-004   7.7239100176065917E-002
 chl2c          25   4.5426679235459781E-002   4.5426679235459781E-002  0.31406487500000002        6.7994375013966169E-016   1.2435377450413022E-017
 chl          25   1.0747334157076388E-005   2.3658639235700694E-004   4.5426679235459781E-002
 chl2c          26   4.7955660680174553E-002   4.7955660680174553E-002  0.49427735000000000        6.7994375013966169E-016   1.1309119473882185E-017
 chl          26   1.1345656753419268E-005   2.3658639235700694E-004   4.7955660680174553E-002
 chl2c          27  0.10616308271003139        4.5333133499525620E-002  0.30964730000000001        6.7994375013966169E-016   5.4922851747178826E-017
 chl          27   2.5116740739864864E-005   2.3658639235700694E-004  0.10616308271003139     
 chl2c          28   5.9767812283570261E-002   3.1209236063453518E-002  0.28776342500000002        1.4476514949165303E-015   5.4602243920150751E-017
 chl          28   1.4140251087240692E-005   2.3658639235700694E-004   5.9767812283570261E-002
 chl2c          29  0.68676297478455262        3.7743217595736761E-002  0.68676297499999994        1.7668639020433130E-015   1.9339524923468702E-006
 chl          29   1.6313533544755476E-004   2.3754241483203524E-004  0.68676297478455262     
 chl2c          30   4.0971099048708159E-002   2.5380056985171612E-002  0.38930277499999999        4.8596241310147212E-015   1.1126147892175813E-016
 chl          30   9.6932045148354632E-006   2.3658639235700694E-004   4.0971099048708159E-002
 chl2c          31  0.63559384976782551        3.7576959810037038E-002  0.63559385000000002        1.7668639020433130E-015   1.5371562431042448E-006
 chl          31   1.5098049792623911E-004   2.3754241483203524E-004  0.63559384976782551     
 chl2c          32  0.24722667497777223        2.0893126428578448E-002  0.24722667500000001        1.7668639020433130E-015   2.4292263969086927E-006
 chl          32   5.8490467127409451E-005   2.3658639235700694E-004  0.24722667497777223     
 chl2c          33  0.60343137480527098        3.7458922634011876E-002  0.60343137499999999        1.7668639020433130E-015   1.6519549623257273E-006
 chl          33   1.4334054595665902E-004   2.3754241483203524E-004  0.60343137480527098     
 chl2c          34  0.38241019952436300        2.5350269098008315E-002  0.38241020000000003        4.8596241310147212E-015   7.4706083697504486E-007
 chl          34   9.0473049505992255E-005   2.3658639235700694E-004  0.38241019952436300     
 chl2c          35   3.1045543502406264E-002   2.5740370148566064E-002  0.49574644999999995        4.8596241310147212E-015   8.0474455119102013E-017
 chl          35   7.3449531359968162E-006   2.3658639235700694E-004   3.1045543502406264E-002
 chl2c          36   8.3615130604279442E-002   3.7770393924465726E-002  0.69587337500000002        1.7668639020433130E-015   8.3956350711856227E-017
 chl          36   1.9862140043730522E-005   2.3754241487382159E-004   8.3615130604279442E-002
 chl2c          37   6.6676139225667869E-002   2.1353674699533250E-002  0.33194060000000003        1.7668639020433130E-015   7.3709735561792315E-017
 chl          37   1.5774667235694280E-005   2.3658639235700694E-004   6.6676139225667869E-002
 chl2c          38   9.6337904274557254E-002   2.1543295686358745E-002  0.38455722500000000        1.7668639020433130E-015   1.1355550204564071E-016
 chl          38   2.2792237219552180E-005   2.3658639235700694E-004   9.6337904274557254E-002
 chl2c          39   3.4875789220436396E-002   2.5670077108751441E-002  0.47091117500000002        4.8596241310147212E-015   9.1519574004250409E-017
 chl          39   8.2511371522664382E-006   2.3658639235700694E-004   3.4875789220436396E-002
 chl2c          40  0.10530935946727391        3.7687445774703773E-002  0.66875547499999999        1.7668639020433130E-015   1.1042185404715428E-016
 chl          40   2.5015439556671589E-005   2.3754241487382159E-004  0.10530935946727391     
 chl2c          41   2.5739523378617998E-002   2.5582381488167241E-002  0.44304987499999998        4.8596241310147212E-015   6.6399780794141707E-017
 chl          41   6.0896209771360702E-006   2.3658639235700694E-004   2.5739523378617998E-002
 chl2c          42   9.2669162709460878E-002   3.7949995630725070E-002  0.76234377499999995        1.7668639020433130E-015   9.3195590585887336E-017
 chl          42   2.2012856690468126E-005   2.3754241483203524E-004   9.2669162709460878E-002
 chl2c          43  0.29539924976144005        2.1185090152268007E-002  0.29539925000000000        1.7668639020433130E-015   3.2314262682805757E-007
 chl          43   6.9887442806025547E-005   2.3658639235700694E-004  0.29539924976144005     
 chl2c          44   7.8782496064388960E-002   3.7536352708156646E-002  0.62417262500000004        1.7668639020433130E-015   7.9652659851624742E-017
 chl          44   1.8714184361630265E-005   2.3754241483203524E-004   7.8782496064388960E-002
 chl2c          45   4.6544927192009838E-002   4.6544927192009838E-002  0.37662252499999999        6.7994375013966169E-016   1.4962203636377120E-017
 chl          45   1.1011896406877161E-005   2.3658639235700694E-004   4.6544927192009838E-002
 chl2c          46  0.51876034987319031        3.7083195475449568E-002  0.51876034999999998        1.7668639020433130E-015   1.8747967808129176E-006
 chl          46   1.2322758622798912E-004   2.3754241483203524E-004  0.51876034987319031     
 chl2c          47   9.7040372956949283E-002   3.7519784612651236E-002  0.61962282499999999        1.7668639020433130E-015   1.0164783766880127E-016
 chl          47   2.3051204528395061E-005   2.3754241483203524E-004   9.7040372956949283E-002
 chl2c          48   9.5822438182254305E-002   3.7823212136301673E-002  0.71424949999999998        1.7668639020433130E-015   9.7769136357921143E-017
 chl          48   2.2761893360906106E-005   2.3754241483203524E-004   9.5822438182254305E-002
 chl2c          49   8.6323375391669732E-002   3.7152990741888416E-002  0.53276120000000005        1.7668639020433130E-015   9.1006648557400570E-017
 chl          49   2.0505463046989513E-005   2.3754241483203524E-004   8.6323375391669732E-002
 chl2c          50  0.38132569992969351        2.1533072915600981E-002  0.38132569999999999        1.7668639020433130E-015   1.8271323510690219E-006
 chl          50   9.0216471659376762E-005   2.3658639235700694E-004  0.38132569992969351     
 chl2c          51   8.4660337530011662E-002   2.0700971146093840E-002  0.22275920000000002        1.7668639020433130E-015   1.2064203274146199E-016
 chl          51   2.0029483831951978E-005   2.3658639235700694E-004   8.4660337530011662E-002
 chl2c          52  0.10268977793712047        3.7581825176985564E-002  0.63698869999999996        1.7668639020433130E-015   1.0815528527252561E-016
 chl          52   2.4393177834040081E-005   2.3754241487382159E-004  0.10268977793712047     
 chl2c          53   9.5728265515656427E-002   3.7925801262726190E-002  0.75269794999999995        1.7668639020433130E-015   9.6892172984500913E-017
 chl          53   2.2739523362271408E-005   2.3754241487382159E-004   9.5728265515656427E-002
 chl2c          54   7.6704286353726281E-002   3.7082433371327092E-002  0.51861124999999997        1.7668639020433130E-015   7.9525026804723540E-017
 chl          54   1.8220521408432067E-005   2.3754241483203524E-004   7.6704286353726281E-002
 chl2c          55  0.57808279986977928        3.7357235588660491E-002  0.57808280000000001        1.7668639020433130E-015   2.2671113399085487E-006
 chl          55   1.3731918425393151E-004   2.3754241483203524E-004  0.57808279986977928     
 chl2c          56  0.10236025006332976        3.7507394187257688E-002  0.61626080000000005        1.7668639020433130E-015   1.0844009801227996E-016
 chl          56   2.4314900987131600E-005   2.3754241487382159E-004  0.10236025006332976     
 chl2c          57  0.68163462465225688        3.7727617852646313E-002  0.68163462500000005        1.7668639020433130E-015   1.1803692679631393E-006
 chl          57   1.6191713477302504E-004   2.3754241483203524E-004  0.68163462465225688     
 chl2c          58  0.69416802476718542        3.7765358178394853E-002  0.69416802499999997        1.7668639020433130E-015   1.8284884654457322E-006
 chl          58   1.6489434893138803E-004   2.3754241487382159E-004  0.69416802476718542     
 chl2c          59  0.53705127373269856        3.7173699120809672E-002  0.53705127500000005        1.7668639020433130E-015   2.0105952768972552E-007
 chl          59   1.2757245645108559E-004   2.3754241483203524E-004  0.53705127373269856     
 chl2c          60  0.64452154969775632        3.7607757740906807E-002  0.64452155000000000        1.7668639020433130E-015   1.2142016282972409E-006
 chl          60   1.5310120532649064E-004   2.3754241483203524E-004  0.64452154969775632     
 chl2c          61   9.3213404624906793E-002   3.7805373434125003E-002  0.70794139999999994        1.7668639020433130E-015   9.4834376177863125E-017
 chl          61   2.2142137229315963E-005   2.3754241483203524E-004   9.3213404624906793E-002
 chl2c          62   7.8644966911390779E-002   3.7956103087269030E-002  0.76481592499999995        1.7668639020433130E-015   7.7440585138276914E-017
 chl          62   1.8681515354517273E-005   2.3754241483203524E-004   7.8644966911390779E-002
 chl2c          63  0.72597904971585514        3.7855601011927406E-002  0.72597904999999996        1.7668639020433130E-015   1.6386321965043992E-006
 chl          63   1.7245081661730640E-004   2.3754241487382159E-004  0.72597904971585514     
 chl2c          64   2.5708982294816416E-002   2.5708982294816416E-002  0.48435739999999999        4.8596241310147212E-015   6.4609924030656722E-017
 chl          64   6.0823953723007815E-006   2.3658639235700694E-004   2.5708982294816416E-002
 chl2c          65  0.76379974631201053        3.7953597170552002E-002  0.76379975000000000        1.7668639020433130E-015   1.3974698367511610E-007
 chl          65   1.8143483621896729E-004   2.3754241487382159E-004  0.76379974631201053     
 chl2c          66   3.1840477731474713E-002   3.1840477731474713E-002  0.35213202499999996        1.4476514949165303E-015   1.2363229122120143E-017
 chl          66   7.5330237574132185E-006   2.3658639235700694E-004   3.1840477731474713E-002
 chl2c          67   9.0227863324040286E-002   3.7937587124568600E-002  0.75736760000000003        1.7668639020433130E-015   9.0490645937186168E-017
 chl          67   2.1432944539127357E-005   2.3754241483203524E-004   9.0227863324040286E-002
 chl2c          68  0.72590779973422026        3.7855407263856986E-002  0.72590779999999999        1.7668639020433130E-015   1.7515161867804148E-006
 chl          68   1.7243389172460913E-004   2.3754241487382159E-004  0.72590779973422026     
 chl2c          69  0.45524217488541424        2.1732330561541505E-002  0.45524217500000003        1.7668639020433130E-015   1.5978184559672740E-006
 chl          69   1.0770410380489778E-004   2.3658639235700694E-004  0.45524217488541424     
 chl2c          70   7.7344607267464130E-002   3.2658010878182209E-002  0.48694062500000002        1.4476514949165303E-015   6.6555561128935453E-017
 chl          70   1.8298681601678879E-005   2.3658639235700694E-004   7.7344607267464130E-002
 chl2c          71   4.3481058864416305E-002   4.3481058864416305E-002  0.23986107500000001        6.7994375013966169E-016   1.3789567796606601E-017
 chl          71   1.0287026852594911E-005   2.3658639235700694E-004   4.3481058864416305E-002
 chl2c          72  0.10294639700600333        3.7549776402781669E-002  0.62790522500000001        1.7668639020433130E-015   1.0878101513361433E-016
 chl          72   2.4454135747365188E-005   2.3754241487382159E-004  0.10294639700600333     
 chl2c          73   3.1852614277819484E-002   3.1852614277819484E-002  0.35362212500000001        1.4476514949165303E-015   1.5439180943893080E-017
 chl          73   7.5358950991286019E-006   2.3658639235700694E-004   3.1852614277819484E-002
 chl2c          74  0.64719589974503944        3.7616827685877569E-002  0.64719590000000005        1.7668639020433130E-015   1.4513472447422442E-006
 chl          74   1.5373647689482844E-004   2.3754241483203524E-004  0.64719589974503944     
 chl2c          75   8.5543104395451486E-002   3.7826830779512356E-002  0.71554212500000003        1.7668639020433130E-015   8.5832831861860242E-017
 chl          75   2.0320115593898967E-005   2.3754241487382159E-004   8.5543104395451486E-002
 chl2c          76  0.55513977486537680        3.7257729557919804E-002  0.55513977500000000        1.7668639020433130E-015   2.0223563568117311E-006
 chl          76   1.3186924271403125E-004   2.3754241487382159E-004  0.55513977486537680     
 chl2c          77  0.52973029968938878        3.7138172437479272E-002  0.52973029999999999        1.7668639020433130E-015   7.9811525105152245E-007
 chl          77   1.2583341459791514E-004   2.3754241483203524E-004  0.52973029968938878     
 chl2c          78  0.45117492488696131        4.7515248899399322E-002  0.45117492500000000        6.7994375013966169E-016   6.1221778909405971E-007
 chl          78   1.0674184780094976E-004   2.3658639235700694E-004  0.45117492488696131     
 prod   5.7385298882970738E-008   6.3750667385643660E-009   10.000000000000000     
 dcdom   1.2256825608576952E-012  -2.1804288225741372E-010
 chl2c           1  0.60826437484630869        3.7477407714772232E-002  0.60826437499999997        3.0420816722795673E-016   3.6616472967387527E-007
 chl           1   1.0156482239433909E-004   1.6697480009412300E-004  0.60826437484630869     
 chl2c           2  0.48302389942955526        3.2640259920490348E-002  0.48302390000000001        2.4879404938651092E-016   5.0878422733623060E-008
 chl           2   8.0439931816536766E-005   1.6653406158895087E-004  0.48302389942955526     
 chl2c           3  0.34289574211458634        3.7922212503796585E-002  0.75128689999999998        3.0420816722795673E-016   9.5947232376122538E-017
 chl           3   5.7254947992709009E-005   1.6697480009412300E-004  0.34289574211458634     
 chl2c           4  0.77318742495644122        3.7976509103863923E-002  0.77318742499999993        3.0420816722795673E-016   2.0875444748370944E-006
 chl           4   1.2910281571739150E-004   1.6697480009412300E-004  0.77318742495644122     
 chl2c           5  0.48489679991031764        2.5710500362372445E-002  0.48489679999999996        8.4151188368909895E-016   1.1031184869624937E-006
 chl           5   8.0751833540550032E-005   1.6653406158895087E-004  0.48489679991031764     
 chl2c           6  0.17621839645478510        3.1261039902252048E-002  0.29222855000000003        2.4879404938651092E-016   5.5218916359719013E-017
 chl           6   2.9346365288307344E-005   1.6653406158895087E-004  0.17621839645478510     
 chl2c           7  0.22770739995673661        4.3064391842467263E-002  0.22770740000000000        1.1662238733768319E-016   6.9885220712107253E-008
 chl           7   3.7921038168655043E-005   1.6653406158895087E-004  0.22770739995673661     
 chl2c           8  0.49578364953523940        4.7969800906495587E-002  0.49578364999999996        1.1662238733768319E-016   3.0839481264720964E-008
 chl           8   8.2564864826496391E-005   1.6653406158895087E-004  0.49578364953523940     
 chl2c           9  0.28700202497820987        2.4803669054600401E-002  0.28700202499999999        8.4151188368909895E-016   1.5905229988500821E-006
 chl           9   4.7795612903874821E-005   1.6653406158895087E-004  0.28700202497820987     
 chl2c          10  0.39094662496055888        2.5387016219684602E-002  0.39094662499999999        8.4151188368909895E-016   1.6304802808269250E-006
 chl          10   6.5105929319174194E-005   1.6653406158895087E-004  0.39094662496055888     
 chl2c          11  0.26769884996559051        2.1820572217820047E-002  0.49737575000000001        3.0420816722795673E-016   8.8176867952847828E-017
 chl          11   4.4580976767460971E-005   1.6653406158895087E-004  0.26769884996559051     
 chl2c          12   4.9776436178089370E-002   4.5290941298723353E-002  0.30768942500000002        1.1662238733768319E-016   3.4627017553085077E-018
 chl          12   8.2894720881604183E-006   1.6653406158895087E-004   4.9776436178089370E-002
 chl2c          13  0.30991983392426153        3.7935816987997487E-002  0.75666275000000005        3.0420816722795673E-016   7.9842646593915164E-017
 chl          13   5.1748802305602508E-005   1.6697480006474489E-004  0.30991983392426153     
 chl2c          14  0.25834312059443737        4.6856526101924839E-002  0.39804095000000000        1.1662238733768319E-016   4.2922689723579711E-017
 chl          14   4.3022929156155793E-005   1.6653406158895087E-004  0.25834312059443737     
 chl2c          15  0.25607262499495886        2.0954299823745293E-002  0.25607262500000000        3.0420816722795673E-016   1.9785235914576488E-006
 chl          15   4.2644814302154799E-005   1.6653406158895087E-004  0.25607262499495886     
 chl2c          16  0.34211815741627594        3.7823443882273475E-002  0.71433214999999994        3.0420816722795673E-016   9.9867573916307350E-017
 chl          16   5.7125110943152376E-005   1.6697480009412300E-004  0.34211815741627594     
 chl2c          17  0.32033316265897699        3.7542254757581245E-002  0.62580860000000005        3.0420816722795673E-016   9.9817803112969417E-017
 chl          17   5.3487565798500870E-005   1.6697480009412300E-004  0.32033316265897699     
 chl2c          18  0.15017371454367601        2.5694475239060960E-002  0.47925950000000000        8.4151188368909895E-016   9.2020753995995736E-017
 chl          18   2.5009038626858067E-005   1.6653406158895087E-004  0.15017371454367601     
 chl2c          19  0.63367129995648275        3.7570220750293731E-002  0.63367130000000005        3.0420816722795673E-016   1.4034825047927143E-006
 chl          19   1.0580713863561675E-004   1.6697480009412300E-004  0.63367129995648275     
 chl2c          20  0.26998724202335694        3.7020645196759419E-002  0.50678202500000002        3.0420816722795673E-016   8.7888730037372437E-017
 chl          20   4.5081065756881911E-005   1.6697480006474489E-004  0.26998724202335694     
 chl2c          21  0.71973184993825723        3.7838475073783531E-002  0.71973185000000006        3.0420816722795673E-016   1.2761320062100388E-006
 chl          21   1.2017708174366948E-004   1.6697480006474489E-004  0.71973184993825723     
 chl2c          22  0.64616892496896594        3.7613353106285476E-002  0.64616892500000001        3.0420816722795673E-016   2.0464165594791619E-006
 chl          22   1.0789392707372746E-004   1.6697480009412300E-004  0.64616892496896594     
 chl2c          23   3.5327550326252323E-002   3.2286562315070731E-002  0.41564179999999995        2.4879404938651092E-016   4.8028623047075381E-018
 chl          23   5.8832404418188660E-006   1.6653406158895087E-004   3.5327550326252323E-002
 chl2c          24  0.25862562383312826        3.7348402796863071E-002  0.57597492500000003        3.0420816722795673E-016   7.1396752093184522E-017
 chl          24   4.3183961831156513E-005   1.6697480006474489E-004  0.25862562383312826     
 chl2c          25   5.2379030153275261E-002   4.5426679235459781E-002  0.31406487500000002        1.1662238733768319E-016   3.6656291113414780E-018
 chl          25   8.7228926335150577E-006   1.6653406158895087E-004   5.2379030153275261E-002
 chl2c          26   5.1175217297104475E-002   4.7955660680174553E-002  0.49427735000000000        1.1662238733768319E-016   3.3287294358043601E-018
 chl          26   8.5224167891839414E-006   1.6653406158895087E-004   5.1175217297104475E-002
 chl2c          27  0.21743220767527377        4.5333133499525620E-002  0.30964730000000001        1.1662238733768319E-016   4.2573670964237398E-017
 chl          27   3.6209868664415598E-005   1.6653406158895087E-004  0.21743220767527377     
 chl2c          28  0.15590492317938803        3.1209236063453518E-002  0.28776342500000002        2.4879404938651092E-016   4.2325030485914396E-017
 chl          28   2.5963480078776861E-005   1.6653406158895087E-004  0.15590492317938803     
 chl2c          29  0.68676297495795380        3.7743217595736761E-002  0.68676297499999994        3.0420816722795673E-016   1.7061912749215987E-006
 chl          29   1.1467211043547373E-004   1.6697480006474489E-004  0.68676297495795380     
 chl2c          30  0.14832057691318151        2.5380056985171612E-002  0.38930277499999999        8.4151188368909895E-016   1.0081710022607689E-016
 chl          30   2.4700428090568495E-005   1.6653406158895087E-004  0.14832057691318151     
 chl2c          31  0.63559384995190671        3.7576959810037038E-002  0.63559385000000002        3.0420816722795673E-016   1.2776580703104414E-006
 chl          31   1.0612815601810108E-004   1.6697480006474489E-004  0.63559384995190671     
 chl2c          32  0.24722667499572459        2.0893126428578448E-002  0.24722667500000001        3.0420816722795673E-016   2.1744727947014817E-006
 chl          32   4.1171662320169544E-005   1.6653406158895087E-004  0.24722667499572459     
 chl2c          33  0.60343137496320653        3.7458922634011876E-002  0.60343137499999999        3.0420816722795673E-016   1.5053096043324999E-006
 chl          33   1.0075783318727552E-004   1.6697480006474489E-004  0.60343137496320653     
 chl2c          34  0.38241019988715125        2.5350269098008315E-002  0.38241020000000003        8.4151188368909895E-016   5.4524579685258852E-007
 chl          34   6.3684323780249867E-005   1.6653406158895087E-004  0.38241019988715125     
 chl2c          35  0.12842475133147521        2.5740370148566064E-002  0.49574644999999995        8.4151188368909895E-016   7.2927616567056985E-017
 chl          35   2.1387095447781593E-005   1.6653406158895087E-004  0.12842475133147521     
 chl2c          36  0.29098349161675446        3.7770393924465726E-002  0.69587337500000002        3.0420816722795673E-016   7.6068091344723861E-017
 chl          36   4.8586910343397492E-005   1.6697480009412300E-004  0.29098349161675446     
 chl2c          37  0.18904578057587917        2.1353674699533250E-002  0.33194060000000003        3.0420816722795673E-016   6.6796199503301794E-017
 chl          37   3.1482561665554758E-005   1.6653406158895087E-004  0.18904578057587917     
 chl2c          38  0.24517873868256898        2.1543295686358745E-002  0.38455722500000000        3.0420816722795673E-016   1.0289373020404093E-016
 chl          38   4.0830611168064237E-005   1.6653406158895087E-004  0.24517873868256898     
 chl2c          39  0.13895141779071038        2.5670077108751441E-002  0.47091117500000002        8.4151188368909895E-016   8.2936709065669555E-017
 chl          39   2.3140143968230206E-005   1.6653406158895087E-004  0.13895141779071038     
 chl2c          40  0.33162572620211433        3.7687445774703773E-002  0.66875547499999999        3.0420816722795673E-016   1.0005973803664529E-016
 chl          40   5.5373139338666405E-005   1.6697480009412300E-004  0.33162572620211433     
 chl2c          41  0.10810954452557525        2.5582381488167241E-002  0.44304987499999998        8.4151188368909895E-016   6.0169924872002278E-017
 chl          41   1.8003921546375577E-005   1.6653406158895087E-004  0.10810954452557525     
 chl2c          42  0.32123404887450080        3.7949995630725070E-002  0.76234377499999995        3.0420816722795673E-016   8.4443586453896255E-017
 chl          42   5.3637991084808258E-005   1.6697480006474489E-004  0.32123404887450080     
 chl2c          43  0.29539924997020484        2.1185090152268007E-002  0.29539925000000000        3.0420816722795673E-016   4.4546560742828371E-007
 chl          43   4.9194036887867988E-005   1.6653406158895087E-004  0.29539924997020484     
 chl2c          44  0.26955679818108486        3.7536352708156646E-002  0.62417262500000004        3.0420816722795673E-016   7.2166852759093029E-017
 chl          44   4.5009192482379430E-005   1.6697480006474489E-004  0.26955679818108486     
 chl2c          45   6.3161133255344962E-002   4.6544927192009838E-002  0.37662252499999999        1.1662238733768319E-016   4.4251100787727628E-018
 chl          45   1.0518480055573552E-005   1.6653406158895087E-004   6.3161133255344962E-002
 chl2c          46  0.51876034997467324        3.7083195475449568E-002  0.51876034999999998        3.0420816722795673E-016   1.6162026900441595E-006
 chl          46   8.6619905718538152E-005   1.6697480006474489E-004  0.51876034997467324     
 chl2c          47  0.30625143678154665        3.7519784612651236E-002  0.61962282499999999        3.0420816722795673E-016   9.2105820298228638E-017
 chl          47   5.1136272426139610E-005   1.6697480006474489E-004  0.30625143678154665     
 chl2c          48  0.32081903388426170        3.7823212136301673E-002  0.71424949999999998        3.0420816722795673E-016   8.8589644358356875E-017
 chl          48   5.3568694039789215E-005   1.6697480006474489E-004  0.32081903388426170     
 chl2c          49  0.26870088488064037        3.7152990741888416E-002  0.53276120000000005        3.0420816722795673E-016   8.2459257864040928E-017
 chl          49   4.4866276530164958E-005   1.6697480006474489E-004  0.26870088488064037     
 chl2c          50  0.38132569998653615        2.1533072915600981E-002  0.38132569999999999        3.0420816722795673E-016   1.6427204286111387E-006
 chl          50   6.3503717607007608E-005   1.6653406158895087E-004  0.38132569998653615     
 chl2c          51  0.17004824184198553        2.0700971146093840E-002  0.22275920000000002        3.0420816722795673E-016   1.0930694558861113E-016
 chl          51   2.8318824380006031E-005   1.6653406158895087E-004  0.17004824184198553     
 chl2c          52  0.32031885013491296        3.7581825176985564E-002  0.63698869999999996        3.0420816722795673E-016   9.8005033779901473E-017
 chl          52   5.3485175967656435E-005   1.6697480009412300E-004  0.32031885013491296     
 chl2c          53  0.32668501840064473        3.7925801262726190E-002  0.75269794999999995        3.0420816722795673E-016   8.7794648272691987E-017
 chl          53   5.4548165641192548E-005   1.6697480009412300E-004  0.32668501840064473     
 chl2c          54  0.24756866641550529        3.7082433371327092E-002  0.51861124999999997        3.0420816722795673E-016   7.2051156530148638E-017
 chl          54   4.1337728577024518E-005   1.6697480006474489E-004  0.24756866641550529     
 chl2c          55  0.57808279997495349        3.7357235588660491E-002  0.57808280000000001        3.0420816722795673E-016   2.0294285372672661E-006
 chl          55   9.6525259946685774E-005   1.6697480006474489E-004  0.57808279997495349     
 chl2c          56  0.31539628128504399        3.7507394187257688E-002  0.61626080000000005        3.0420816722795673E-016   9.8263224598379578E-017
 chl          56   5.2663231018000005E-005   1.6697480009412300E-004  0.31539628128504399     
 chl2c          57  0.68163462492388438        3.7727617852646313E-002  0.68163462500000005        3.0420816722795673E-016   9.2847405400123179E-007
 chl          57   1.1381580521387296E-004   1.6697480006474489E-004  0.68163462492388438     
 chl2c          58  0.69416802495701657        3.7765358178394853E-002  0.69416802499999997        3.0420816722795673E-016   1.7051748430370349E-006
 chl          58   1.1590856719893002E-004   1.6697480009412300E-004  0.69416802495701657     
 chl2c          59  0.53705127484381099        3.7173699120809672E-002  0.53705127500000005        3.0420816722795673E-016   2.8088057237894610E-007
 chl          59   8.9674029241561696E-005   1.6697480006474489E-004  0.53705127484381099     
 chl2c          60  0.64452154994516253        3.7607757740906807E-002  0.64452155000000000        3.0420816722795673E-016   1.1522298222591602E-006
 chl          60   1.0761885693951300E-004   1.6697480006474489E-004  0.64452154994516253     
 chl2c          61  0.31420299459651813        3.7805373434125003E-002  0.70794139999999994        3.0420816722795673E-016   8.5929191595628604E-017
 chl          61   5.2463982202497729E-005   1.6697480006474489E-004  0.31420299459651813     
 chl2c          62  0.28773562286840842        3.7956103087269030E-002  0.76481592499999995        3.0420816722795673E-016   7.0161674137017425E-017
 chl          62   4.8044598099957333E-005   1.6697480006474489E-004  0.28773562286840842     
 chl2c          63  0.72597904994578333        3.7855601011927406E-002  0.72597904999999996        3.0420816722795673E-016   1.4786190429582784E-006
 chl          63   1.2122020673721851E-004   1.6697480009412300E-004  0.72597904994578333     
 chl2c          64  0.10809434826911396        2.5708982294816416E-002  0.48435739999999999        8.4151188368909895E-016   5.8547399637910648E-017
 chl          64   1.8001390852066128E-005   1.6653406158895087E-004  0.10809434826911396     
 chl2c          65  0.76379974956014995        3.7953597170552002E-002  0.76379975000000000        3.0420816722795673E-016   2.0174152683292713E-007
 chl          65   1.2753531049474725E-004   1.6697480009412300E-004  0.76379974956014995     
 chl2c          66   3.1840477731474713E-002   3.1840477731474713E-002  0.35213202499999996        2.4879404938651092E-016   3.6440174669192435E-018
 chl          66   5.3025240795550288E-006   1.6653406158895087E-004   3.1840477731474713E-002
 chl2c          67  0.31491270867989513        3.7937587124568600E-002  0.75736760000000003        3.0420816722795673E-016   8.1991490800744089E-017
 chl          67   5.2582486569672742E-005   1.6697480006474489E-004  0.31491270867989513     
 chl2c          68  0.72590779995160581        3.7855407263856986E-002  0.72590779999999999        3.0420816722795673E-016   1.6561928047604722E-006
 chl          68   1.2120830978368401E-004   1.6697480009412300E-004  0.72590779995160581     
 chl2c          69  0.45524217497743019        2.1732330561541505E-002  0.45524217500000003        3.0420816722795673E-016   1.3966820549201993E-006
 chl          69   7.5813328405579316E-005   1.6653406158895087E-004  0.45524217497743019     
 chl2c          70  0.22398202736058515        3.2658010878182209E-002  0.48694062500000002        2.4879404938651092E-016   5.1595496770499164E-017
 chl          70   3.7300636739285767E-005   1.6653406158895087E-004  0.22398202736058515     
 chl2c          71   5.4086160512293369E-002   4.3481058864416305E-002  0.23986107500000001        1.1662238733768319E-016   4.0720283239277485E-018
 chl          71   9.0071879858641463E-006   1.6653406158895087E-004   5.4086160512293369E-002
 chl2c          72  0.31891124365844242        3.7549776402781669E-002  0.62790522500000001        3.0420816722795673E-016   9.8572275427369157E-017
 chl          72   5.3250141157636571E-005   1.6697480009412300E-004  0.31891124365844242     
 chl2c          73   3.3273492577545562E-002   3.1852614277819484E-002  0.35362212500000001        2.4879404938651092E-016   4.5690397639242612E-018
 chl          73   5.5411698621884722E-006   1.6653406158895087E-004   3.3273492577545562E-002
 chl2c          74  0.64719589995386029        3.7616827685877569E-002  0.64719590000000005        3.0420816722795673E-016   1.3808200222231565E-006
 chl          74   1.0806540599751846E-004   1.6697480006474489E-004  0.64719589995386029     
 chl2c          75  0.29820628950377231        3.7826830779512356E-002  0.71554212500000003        3.0420816722795673E-016   7.7769122969969039E-017
 chl          75   4.9792935576702550E-005   1.6697480009412300E-004  0.29820628950377231     
 chl2c          76  0.55513977497408240        3.7257729557919804E-002  0.55513977500000000        3.0420816722795673E-016   1.8086356104763605E-006
 chl          76   9.2694352950593831E-005   1.6697480009412300E-004  0.55513977497408240     
 chl2c          77  0.52973029994668230        3.7138172437479272E-002  0.52973029999999999        3.0420816722795673E-016   8.0053330012529374E-007
 chl          77   8.8451610921834616E-005   1.6697480006474489E-004  0.52973029994668230     
 chl2c          78  0.45117492496818412        4.7515248899399322E-002  0.45117492500000000        1.1662238733768319E-016   3.7307690499754106E-007
 chl          78   7.5135992742041870E-005   1.6653406158895087E-004  0.45117492496818412     
 prod   1.6644746619295295E-008   1.0936558253875703E-009   10.000000000000000     
 dcdom   1.2330387503641506E-012  -1.9285362296414815E-010
 chl2c           1  0.60826437499178387        3.7477407714772232E-002  0.60826437499999997        5.8683432702223591E-017   1.3213172961867953E-006
 chl           1   7.5601688670445455E-005   1.2429083763366324E-004  0.60826437499178387     
 chl2c           2  0.48302389983008104        3.2640259920490348E-002  0.48302390000000001        4.7777300983468511E-017   3.2800995633502319E-008
 chl           2   5.9906404819249484E-005   1.2402368669608990E-004  0.48302389983008104     
 chl2c           3  0.68716415305086886        3.7922212503796585E-002  0.75128689999999998        5.8683432702223591E-017   2.3623253351488073E-016
 chl           3   8.5408208174519255E-005   1.2429083763366324E-004  0.68716415305086886     
 chl2c           4  0.77318742499652593        3.7976509103863923E-002  0.77318742499999993        5.8683432702223591E-017   5.0491844006670842E-006
 chl           4   9.6100112700633376E-005   1.2429083763366324E-004  0.77318742499652593     
 chl2c           5  0.48489679999109986        2.5710500362372445E-002  0.48489679999999996        1.6397711205567358E-016   2.1659938322555403E-006
 chl           5   6.0138688802032738E-005   1.2402368669608990E-004  0.48489679999109986     
 chl2c           6  0.25280084097333394        3.1261039902252048E-002  0.29222855000000003        4.7777300983468511E-017   4.4760118859675790E-017
 chl           6   3.1353292297384813E-005   1.2402368669608990E-004  0.25280084097333394     
 chl2c           7  0.22770739998926257        4.3064391842467263E-002  0.22770740000000000        2.2311469446788407E-017   5.3870686015889576E-008
 chl           7   2.8241111234649526E-005   1.2402368669608990E-004  0.22770739998926257     
 chl2c           8  0.49578364991245821        4.7969800906495587E-002  0.49578364999999996        2.2311469446788407E-017   3.1323261840384509E-008
 chl           8   6.1488916065786641E-005   1.2402368669608990E-004  0.49578364991245821     
 chl2c           9  0.28700202499818878        2.4803669054600401E-002  0.28700202499999999        1.6397711205567358E-016   3.7287386274828486E-006
 chl           9   3.5595049229518723E-005   1.2402368669608990E-004  0.28700202499818878     
 chl2c          10  0.39094662499626343        2.5387016219684602E-002  0.39094662499999999        1.6397711205567358E-016   3.3536170803839275E-006
 chl          10   4.8486641733430321E-005   1.2402368669608990E-004  0.39094662499626343     
 chl2c          11  0.46317413037713506        2.1820572217820047E-002  0.49737575000000001        5.8683432702223591E-017   1.9763676820709154E-016
 chl          11   5.7444563231627693E-005   1.2402368669608990E-004  0.46317413037713506     
 chl2c          12  0.13609589969861424        4.5290941298723353E-002  0.30768942500000002        2.2311469446788407E-017   2.7224185352437770E-018
 chl          12   1.6879115224843409E-005   1.2402368669608990E-004  0.13609589969861424     
 chl2c          13  0.68176103059369353        3.7935816987997487E-002  0.75666275000000005        5.8683432702223591E-017   2.0208229014688255E-016
 chl          13   8.4736649543429768E-005   1.2429083761158818E-004  0.68176103059369353     
 chl2c          14  0.35283693311417413        4.6856526101924839E-002  0.39804095000000000        2.2311469446788407E-017   3.4659551818944696E-017
 chl          14   4.3760137247361562E-005   1.2402368669608990E-004  0.35283693311417413     
 chl2c          15  0.25607262499952593        2.0954299823745293E-002  0.25607262500000000        5.8683432702223591E-017   4.0586541773566135E-006
 chl          15   3.1759071014386522E-005   1.2402368669608990E-004  0.25607262499952593     
 chl2c          16  0.65788151722855137        3.7823443882273475E-002  0.71433214999999994        5.8683432702223591E-017   2.4426687830293038E-016
 chl          16   8.1768644840041899E-005   1.2429083763366324E-004  0.65788151722855137     
 chl2c          17  0.58203692083810932        3.7542254757581245E-002  0.62580860000000005        5.8683432702223591E-017   2.4416553906758366E-016
 chl          17   7.2341856424686747E-005   1.2429083763366324E-004  0.58203692083810932     
 chl2c          18  0.40190191495619859        2.5694475239060960E-002  0.47925950000000000        1.6397711205567358E-016   2.0414612469224456E-016
 chl          18   4.9845357183086142E-005   1.2402368669608990E-004  0.40190191495619859     
 chl2c          19  0.63367129999676597        3.7570220750293731E-002  0.63367130000000005        5.8683432702223591E-017   3.6431150212812569E-006
 chl          19   7.8759536661010345E-005   1.2429083763366324E-004  0.63367129999676597     
 chl2c          20  0.47461211893730476        3.7020645196759419E-002  0.50678202500000002        5.8683432702223591E-017   2.1937935116344344E-016
 chl          20   5.8989937803328321E-005   1.2429083761158818E-004  0.47461211893730476     
 chl2c          21  0.71973184999559614        3.7838475073783531E-002  0.71973185000000006        5.8683432702223591E-017   3.4513224736561003E-006
 chl          21   8.9456074491690586E-005   1.2429083761158818E-004  0.71973184999559614     
 chl2c          22  0.64616892499751821        3.7613353106285476E-002  0.64616892500000001        5.8683432702223591E-017   4.9366059025952413E-006
 chl          22   8.0312876940785260E-005   1.2429083763366324E-004  0.64616892499751821     
 chl2c          23  0.11456150172665693        3.2286562315070731E-002  0.41564179999999995        4.7777300983468511E-017   3.7780455850196470E-018
 chl          23   1.4208339797580461E-005   1.2402368669608990E-004  0.11456150172665693     
 chl2c          24  0.52737733314312341        3.7348402796863071E-002  0.57597492500000003        5.8683432702223591E-017   1.8339850946484162E-016
 chl          24   6.5548170473724387E-005   1.2429083761158818E-004  0.52737733314312341     
 chl2c          25  0.14175087485123217        4.5426679235459781E-002  0.31406487500000002        2.2311469446788407E-017   2.8821908137320289E-018
 chl          25   1.7580466091445866E-005   1.2402368669608990E-004  0.14175087485123217     
 chl2c          26  0.15908290566685016        4.7955660680174553E-002  0.49427735000000000        2.2311469446788407E-017   2.6169510006499656E-018
 chl          26   1.9730048451129047E-005   1.2402368669608990E-004  0.15908290566685016     
 chl2c          27  0.28137144398976438        4.5333133499525620E-002  0.30964730000000001        2.2311469446788407E-017   3.4373973188777343E-017
 chl          27   3.4896723814612948E-005   1.2402368669608990E-004  0.28137144398976438     
 chl2c          28  0.23956818075114122        3.1209236063453518E-002  0.28776342500000002        4.7777300983468511E-017   3.4170564990010161E-017
 chl          28   2.9712128991831776E-005   1.2402368669608990E-004  0.23956818075114122     
 chl2c          29  0.68676297499659789        3.7743217595736761E-002  0.68676297499999994        5.8683432702223591E-017   4.0677615872070165E-006
 chl          29   8.5358345402953341E-005   1.2429083761158818E-004  0.68676297499659789     
 chl2c          30  0.33969332383936157        2.5380056985171612E-002  0.38930277499999999        1.6397711205567358E-016   2.1855629827782858E-016
 chl          30   4.2130018368606384E-005   1.2402368669608990E-004  0.33969332383936157     
 chl2c          31  0.63559384999558832        3.7576959810037038E-002  0.63559385000000002        5.8683432702223591E-017   2.6868464513034943E-006
 chl          31   7.8998491996725808E-005   1.2429083761158818E-004  0.63559384999558832     
 chl2c          32  0.24722667499961035        2.0893126428578448E-002  0.24722667500000001        5.8683432702223591E-017   4.6023830244380901E-006
 chl          32   3.0661963683067715E-005   1.2402368669608990E-004  0.24722667499961035     
 chl2c          33  0.60343137499722532        3.7458922634011876E-002  0.60343137499999999        5.8683432702223591E-017   3.8507418220968977E-006
 chl          33   7.5000991039517507E-005   1.2429083761158818E-004  0.60343137499722532     
 chl2c          34  0.38241019998521752        2.5350269098008315E-002  0.38241020000000003        1.6397711205567358E-016   8.1108192462914042E-007
 chl          34   4.7427922832355703E-005   1.2402368669608990E-004  0.38241019998521752     
 chl2c          35  0.40028787315997860        2.5740370148566064E-002  0.49574644999999995        1.6397711205567358E-016   1.7043953025412153E-016
 chl          35   4.9645177769037361E-005   1.2402368669608990E-004  0.40028787315997860     
 chl2c          36  0.62954660885783387        3.7770393924465726E-002  0.69587337500000002        5.8683432702223591E-017   1.9380045855033021E-016
 chl          36   7.8246875344372327E-005   1.2429083763366324E-004  0.62954660885783387     
 chl2c          37  0.31276272914827924        2.1353674699533250E-002  0.33194060000000003        5.8683432702223591E-017   1.5884022497998625E-016
 chl          37   3.8789986730100206E-005   1.2402368669608990E-004  0.31276272914827924     
 chl2c          38  0.36594588335148709        2.1543295686358745E-002  0.38455722500000000        5.8683432702223591E-017   2.2186340507650854E-016
 chl          38   4.5385957584508697E-005   1.2402368669608990E-004  0.36594588335148709     
 chl2c          39  0.39087044825117551        2.5670077108751441E-002  0.47091117500000002        1.6397711205567358E-016   1.8854457804261397E-016
 chl          39   4.8477194012664011E-005   1.2402368669608990E-004  0.39087044825117551     
 chl2c          40  0.61910136253478476        3.7687445774703773E-002  0.66875547499999999        5.8683432702223591E-017   2.4465798874532795E-016
 chl          40   7.6948626929590621E-005   1.2429083763366324E-004  0.61910136253478476     
 chl2c          41  0.35470311493976292        2.5582381488167241E-002  0.44304987499999998        1.6397711205567358E-016   1.4584120071814512E-016
 chl          41   4.3991587997416320E-005   1.2402368669608990E-004  0.35470311493976292     
 chl2c          42  0.68959442141297811        3.7949995630725070E-002  0.76234377499999995        5.8683432702223591E-017   2.1203178698655084E-016
 chl          42   8.5710268249697565E-005   1.2429083761158818E-004  0.68959442141297811     
 chl2c          43  0.29539924999832978        2.1185090152268007E-002  0.29539925000000000        5.8683432702223591E-017   1.5329755278975333E-006
 chl          43   3.6636504032052789E-005   1.2402368669608990E-004  0.29539924999832978     
 chl2c          44  0.56798251589322279        3.7536352708156646E-002  0.62417262500000004        5.8683432702223591E-017   1.8512510743681232E-016
 chl          44   7.0595022649105855E-005   1.2429083761158818E-004  0.56798251589322279     
 chl2c          45  0.17063401198796069        4.6544927192009838E-002  0.37662252499999999        2.2311469446788407E-017   3.4803832411034752E-018
 chl          45   2.1162659242491683E-005   1.2402368669608990E-004  0.17063401198796069     
 chl2c          46  0.51876034999783394        3.7083195475449568E-002  0.51876034999999998        5.8683432702223591E-017   3.6455078730177502E-006
 chl          46   6.4477158420911426E-005   1.2429083761158818E-004  0.51876034999783394     
 chl2c          47  0.57391039756270856        3.7519784612651236E-002  0.61962282499999999        5.8683432702223591E-017   2.2825627778131176E-016
 chl          47   7.1331804027068623E-005   1.2429083761158818E-004  0.57391039756270856     
 chl2c          48  0.65234937701555384        3.7823212136301673E-002  0.71424949999999998        5.8683432702223591E-017   2.2086362685268124E-016
 chl          48   8.1081050484660918E-005   1.2429083761158818E-004  0.65234937701555384     
 chl2c          49  0.49548061909355762        3.7152990741888416E-002  0.53276120000000005        5.8683432702223591E-017   2.0776007984441635E-016
 chl          49   6.1583701167446542E-005   1.2429083761158818E-004  0.49548061909355762     
 chl2c          50  0.38132569999885507        2.1533072915600981E-002  0.38132569999999999        5.8683432702223591E-017   3.7265270486613334E-006
 chl          50   4.7293419145825167E-005   1.2402368669608990E-004  0.38132569999885507     
 chl2c          51  0.21665173852289410        2.0700971146093840E-002  0.22275920000000002        5.8683432702223591E-017   2.3185827796511367E-016
 chl          51   2.6869947340726610E-005   1.2402368669608990E-004  0.21665173852289410     
 chl2c          52  0.59104857342309358        3.7581825176985564E-002  0.63698869999999996        5.8683432702223591E-017   2.4046298201103923E-016
 chl          52   7.3461922272938013E-005   1.2429083763366324E-004  0.59104857342309358     
 chl2c          53  0.68379590416859737        3.7925801262726190E-002  0.75269794999999995        5.8683432702223591E-017   2.1917985012590296E-016
 chl          53   8.4989565699583079E-005   1.2429083763366324E-004  0.68379590416859737     
 chl2c          54  0.47916921723237227        3.7082433371327092E-002  0.51861124999999997        5.8683432702223591E-017   1.8486601035659771E-016
 chl          54   5.9556343367500601E-005   1.2429083761158818E-004  0.47916921723237227     
 chl2c          55  0.57808279999799972        3.7357235588660491E-002  0.57808280000000001        5.8683432702223591E-017   4.9021711719474588E-006
 chl          55   7.1850395420603594E-005   1.2429083761158818E-004  0.57808279999799972     
 chl2c          56  0.57324866433315202        3.7507394187257688E-002  0.61626080000000005        5.8683432702223591E-017   2.4099170945895589E-016
 chl          56   7.1249556662346123E-005   1.2429083763366324E-004  0.57324866433315202     
 chl2c          57  0.68163462499212180        3.7727617852646313E-002  0.68163462500000005        5.8683432702223591E-017   1.7304492685475361E-006
 chl          57   8.4720938485331618E-005   1.2429083761158818E-004  0.68163462499212180     
 chl2c          58  0.69416802499675001        3.7765358178394853E-002  0.69416802499999997        5.8683432702223591E-017   4.3504187051212717E-006
 chl          58   8.6278725285351745E-005   1.2429083763366324E-004  0.69416802499675001     
 chl2c          59  0.53705127499238614        3.7173699120809672E-002  0.53705127500000005        5.8683432702223591E-017   1.1114925620862644E-006
 chl          59   6.6750552809175060E-005   1.2429083761158818E-004  0.53705127499238614     
 chl2c          60  0.64452154999611755        3.7607757740906807E-002  0.64452155000000000        5.8683432702223591E-017   3.1393743847762263E-006
 chl          60   8.0108123307736552E-005   1.2429083761158818E-004  0.64452154999611755     
 chl2c          61  0.64562543553884177        3.7805373434125003E-002  0.70794139999999994        5.8683432702223591E-017   2.1521083654826116E-016
 chl          61   8.0245326166469079E-005   1.2429083761158818E-004  0.64562543553884177     
 chl2c          62  0.68029316903754478        3.7956103087269030E-002  0.76481592499999995        5.8683432702223591E-017   1.8061960888405003E-016
 chl          62   8.4554207801118181E-005   1.2429083761158818E-004  0.68029316903754478     
 chl2c          63  0.72597904999588780        3.7855601011927406E-002  0.72597904999999996        5.8683432702223591E-017   3.7605987670211927E-006
 chl          63   9.0232544228479976E-005   1.2429083763366324E-004  0.72597904999588780     
 chl2c          64  0.37884244682433027        2.5708982294816416E-002  0.48435739999999999        1.6397711205567358E-016   1.4258170357175681E-016
 chl          64   4.6985436932120833E-005   1.2402368669608990E-004  0.37884244682433027     
 chl2c          65  0.76379974997987210        3.7953597170552002E-002  0.76379975000000000        5.8683432702223591E-017   8.5044345358284614E-007
 chl          65   9.4933310709380866E-005   1.2429083763366324E-004  0.76379974997987210     
 chl2c          66   8.9465959327693162E-002   3.1840477731474713E-002  0.35213202499999996        4.7777300983468511E-017   2.8651739553705147E-018
 chl          66   1.1095898109622939E-005   1.2402368669608990E-004   8.9465959327693162E-002
 chl2c          67  0.68386242810675035        3.7937587124568600E-002  0.75736760000000003        5.8683432702223591E-017   2.0674884068932704E-016
 chl          67   8.4997834000482498E-005   1.2429083761158818E-004  0.68386242810675035     
 chl2c          68  0.72590779999638255        3.7855407263856986E-002  0.72590779999999999        5.8683432702223591E-017   4.2740337340046475E-006
 chl          68   9.0223688506360072E-005   1.2429083763366324E-004  0.72590779999638255     
 chl2c          69  0.45524217499800262        2.1732330561541505E-002  0.45524217500000003        5.8683432702223591E-017   3.0443913003770870E-006
 chl          69   5.6460812882798804E-005   1.2402368669608990E-004  0.45524217499800262     
 chl2c          70  0.38088431740374323        3.2658010878182209E-002  0.48694062500000002        4.7777300983468511E-017   4.1775745980460477E-017
 chl          70   4.7238677249135913E-005   1.2402368669608990E-004  0.38088431740374323     
 chl2c          71  0.13067098639006280        4.3481058864416305E-002  0.23986107500000001        2.2311469446788407E-017   3.2022402000253949E-018
 chl          71   1.6206297476310177E-005   1.2402368669608990E-004  0.13067098639006280     
 chl2c          72  0.58341951581438456        3.7549776402781669E-002  0.62790522500000001        5.8683432702223591E-017   2.4162398654859622E-016
 chl          72   7.2513700312396088E-005   1.2429083763366324E-004  0.58341951581438456     
 chl2c          73  0.10553994458022403        3.1852614277819484E-002  0.35362212500000001        4.7777300983468511E-017   3.5937870345915941E-018
 chl          73   1.3089453020540397E-005   1.2402368669608990E-004  0.10553994458022403     
 chl2c          74  0.64719589999665739        3.7616827685877569E-002  0.64719590000000005        5.8683432702223591E-017   3.6768336366366991E-006
 chl          74   8.0440520509370207E-005   1.2429083761158818E-004  0.64719589999665739     
 chl2c          75  0.64680013046564444        3.7826830779512356E-002  0.71554212500000003        5.8683432702223591E-017   1.9754620486336347E-016
 chl          75   8.0391329997137617E-005   1.2429083763366324E-004  0.64680013046564444     
 chl2c          76  0.55513977499796019        3.7257729557919804E-002  0.55513977500000000        5.8683432702223591E-017   4.4330858202035308E-006
 chl          76   6.8998787638259809E-005   1.2429083763366324E-004  0.55513977499796019     
 chl2c          77  0.52973029999651000        3.7138172437479272E-002  0.52973029999999999        5.8683432702223591E-017   2.3591947909732592E-006
 chl          77   6.5840622694804120E-005   1.2429083761158818E-004  0.52973029999651000     
 chl2c          78  0.45117492498728184        4.7515248899399322E-002  0.45117492500000000        2.2311469446788407E-017   1.7855183360201019E-007
 chl          78   5.5956377541754503E-005   1.2402368669608990E-004  0.45117492498728184     
 prod   1.3068639293330870E-008   2.0936221487019994E-010   10.000000000000000     
 dcdom   1.2336127933123567E-012  -1.6527475310295510E-010
 chl2c           1  0.60826437499934871        3.7477407714772232E-002  0.60826437499999997        8.8696384122736290E-018   2.5192931177188630E-006
 chl           1   4.9694166281083157E-005   8.1698301468233057E-005  0.60826437499934871     
 chl2c           2  0.48302389995417783        3.2640259920490348E-002  0.48302390000000001        7.1530177798909356E-018   1.8210473527515292E-008
 chl           2   3.9376262445897090E-005   8.1520319076618214E-005  0.48302389995417783     
 chl2c           3  0.74394938695319213        3.7922212503796585E-002  0.75128689999999998        8.8696384122736290E-018   3.3781290761393536E-016
 chl           3   6.0779401292409061E-005   8.1698301468233057E-005  0.74394938695319213     
 chl2c           4  0.77318742499962534        3.7976509103863923E-002  0.77318742499999993        8.8696384122736290E-018   7.0766335863921659E-006
 chl           4   6.3168099339066231E-005   8.1698301468233057E-005  0.77318742499962534     
 chl2c           5  0.48489679999872742        2.5710500362372445E-002  0.48489679999999996        2.5258441389268829E-017   2.3334232717525293E-006
 chl           5   3.9528941855127383E-005   8.1520319076618214E-005  0.48489679999872742     
 chl2c           6  0.28349255940091428        3.1261039902252048E-002  0.29222855000000003        7.1530177798909356E-018   3.3916533564669696E-017
 chl           6   2.3110403898209675E-005   8.1520319076618214E-005  0.28349255940091428     
 chl2c           7  0.22770739999777304        4.3064391842467263E-002  0.22770740000000000        3.3155746864819032E-018   3.8598303662713721E-008
 chl           7   1.8562779903925593E-005   8.1520319076618214E-005  0.22770739999777304     
 chl2c           8  0.49578364998517854        4.7969800906495587E-002  0.49578364999999996        3.3155746864819032E-018   2.7492992194697661E-008
 chl           8   4.0416441339762161E-005   8.1520319076618214E-005  0.49578364998517854     
 chl2c           9  0.28700202499979643        2.4803669054600401E-002  0.28700202499999999        2.5258441389268829E-017   5.1112609643724225E-006
 chl           9   2.3396496653618962E-005   8.1520319076618214E-005  0.28700202499979643     
 chl2c          10  0.39094662499951316        2.5387016219684602E-002  0.39094662499999999        2.5258441389268829E-017   3.9649199845469245E-006
 chl          10   3.1870093611887317E-005   8.1520319076618214E-005  0.39094662499951316     
 chl2c          11  0.49327541363985772        2.1820572217820047E-002  0.49737575000000001        8.8696384122736290E-018   2.6535697749675600E-016
 chl          11   4.0211969112572036E-005   8.1520319076618214E-005  0.49327541363985772     
 chl2c          12  0.24492934438897990        4.5290941298723353E-002  0.30768942500000002        3.3155746864819032E-018   1.9906674584266353E-018
 chl          12   1.9966718305816549E-005   8.1520319076618214E-005  0.24492934438897990     
 chl2c          13  0.74815128921048424        3.7935816987997487E-002  0.75666275000000005        8.8696384122736290E-018   2.9496032288967313E-016
 chl          13   6.1122689558808953E-005   8.1698301453588413E-005  0.74815128921048424     
 chl2c          14  0.38824707211941001        4.6856526101924839E-002  0.39804095000000000        3.3155746864819032E-018   2.6158333862840615E-017
 chl          14   3.1650025199737110E-005   8.1520319076618214E-005  0.38824707211941001     
 chl2c          15  0.25607262499994071        2.0954299823745293E-002  0.25607262500000000        8.8696384122736290E-018   4.9052028170619507E-006
 chl          15   2.0875122096782370E-005   8.1520319076618214E-005  0.25607262499994071     
 chl2c          16  0.70788151437842128        3.7823443882273475E-002  0.71433214999999994        8.8696384122736290E-018   3.4764355100918533E-016
 chl          16   5.7832717365477613E-005   8.1698301468233057E-005  0.70788151437842128     
 chl2c          17  0.62085039548634713        3.7542254757581245E-002  0.62580860000000005        8.8696384122736290E-018   3.4752013512687965E-016
 chl          17   5.0722422777115305E-005   8.1698301468233057E-005  0.62085039548634713     
 chl2c          18  0.46884078168152871        2.5694475239060960E-002  0.47925950000000000        2.5258441389268829E-017   2.7236943360708067E-016
 chl          18   3.8220050118809320E-005   8.1520319076618214E-005  0.46884078168152871     
 chl2c          19  0.63367129999966920        3.7570220750293731E-002  0.63367130000000005        8.8696384122736290E-018   5.3829103391817598E-006
 chl          19   5.1769868899140123E-005   8.1698301468233057E-005  0.63367129999966920     
 chl2c          20  0.50321301092706439        3.7020645196759419E-002  0.50678202500000002        8.8696384122736290E-018   3.1688430053096832E-016
 chl          20   4.1111648262087185E-005   8.1698301453588413E-005  0.50321301092706439     
 chl2c          21  0.71973184999956485        3.7838475073783531E-002  0.71973185000000006        8.8696384122736290E-018   5.2782670809493587E-006
 chl          21   5.8800869647013330E-005   8.1698301453588413E-005  0.71973184999956485     
 chl2c          22  0.64616892499973222        3.7613353106285476E-002  0.64616892500000001        8.8696384122736290E-018   6.9151290911845565E-006
 chl          22   5.2790903634032199E-005   8.1698301468233057E-005  0.64616892499973222     
 chl2c          23  0.27027861218749288        3.2286562315070731E-002  0.41564179999999995        7.1530177798909356E-018   2.7639855460113583E-018
 chl          23   2.2033198705109974E-005   8.1520319076618214E-005  0.27027861218749288     
 chl2c          24  0.57059190563491324        3.7348402796863071E-002  0.57597492500000003        8.8696384122736290E-018   2.7075666798584182E-016
 chl          24   4.6616389513538613E-005   8.1698301453588413E-005  0.57059190563491324     
 chl2c          25  0.25185053455551171        4.5426679235459781E-002  0.31406487500000002        3.3155746864819032E-018   2.1076600458531158E-018
 chl          25   2.0530935936582174E-005   8.1520319076618214E-005  0.25185053455551171     
 chl2c          26  0.34607554960473602        4.7955660680174553E-002  0.49427735000000000        3.3155746864819032E-018   1.9134493330535475E-018
 chl          26   2.8212189228394097E-005   8.1520319076618214E-005  0.34607554960473602     
 chl2c          27  0.30363853593959972        4.5333133499525620E-002  0.30964730000000001        3.3155746864819032E-018   2.5939873533880955E-017
 chl          27   2.4752710333753375E-005   8.1520319076618214E-005  0.30363853593959972     
 chl2c          28  0.27671813416778696        3.1209236063453518E-002  0.28776342500000002        7.1530177798909356E-018   2.5784301317605231E-017
 chl          28   2.2558150591644440E-005   8.1520319076618214E-005  0.27671813416778696     
 chl2c          29  0.68676297499962136        3.7743217595736761E-002  0.68676297499999994        8.8696384122736290E-018   5.5248361425389239E-006
 chl          29   5.6107368558682268E-005   8.1698301453588413E-005  0.68676297499962136     
 chl2c          30  0.38275906475203464        2.5380056985171612E-002  0.38930277499999999        2.5258441389268829E-017   2.8758450060277297E-016
 chl          30   3.1202641088053836E-005   8.1520319076618214E-005  0.38275906475203464     
 chl2c          31  0.63559384999942736        3.7576959810037038E-002  0.63559385000000002        8.8696384122736290E-018   3.1279222471445098E-006
 chl          31   5.1926937959300070E-005   8.1698301453588413E-005  0.63559384999942736     
 chl2c          32  0.24722667499995418        2.0893126428578448E-002  0.24722667500000001        8.8696384122736290E-018   5.9153749381686964E-006
 chl          32   2.0153997430247657E-005   8.1520319076618214E-005  0.24722667499995418     
 chl2c          33  0.60343137499971300        3.7458922634011876E-002  0.60343137499999999        8.8696384122736290E-018   5.6256470796076531E-006
 chl          33   4.9299318381279908E-005   8.1698301453588413E-005  0.60343137499971300     
 chl2c          34  0.38241019999654852        2.5350269098008315E-002  0.38241020000000003        2.5258441389268829E-017   5.3508930747046151E-007
 chl          34   3.1174201521872022E-005   8.1520319076618214E-005  0.38241019999654852     
 chl2c          35  0.48288532387820760        2.5740370148566064E-002  0.49574644999999995        2.5258441389268829E-017   2.3507214740870054E-016
 chl          35   3.9364965679967609E-005   8.1520319076618214E-005  0.48288532387820760     
 chl2c          36  0.68840078549649286        3.7770393924465726E-002  0.69587337500000002        8.8696384122736290E-018   2.8429968042351315E-016
 chl          36   5.6241174904460915E-005   8.1698301468233057E-005  0.68840078549649286     
 chl2c          37  0.32975054547247146        2.1353674699533250E-002  0.33194060000000003        8.8696384122736290E-018   2.2164956792064799E-016
 chl          37   2.6881369682604775E-005   8.1520319076618214E-005  0.32975054547247146     
 chl2c          38  0.38231674649413439        2.1543295686358745E-002  0.38455722500000000        8.8696384122736290E-018   2.9101772058870733E-016
 chl          38   3.1166583162536394E-005   8.1520319076618214E-005  0.38231674649413439     
 chl2c          39  0.46019558400216559        2.5670077108751441E-002  0.47091117500000002        2.5258441389268829E-017   2.5541233496471516E-016
 chl          39   3.7515290845507199E-005   8.1520319076618214E-005  0.46019558400216559     
 chl2c          40  0.66310613538706753        3.7687445774703773E-002  0.66875547499999999        8.8696384122736290E-018   3.4811972607426400E-016
 chl          40   5.4174644954287608E-005   8.1698301468233057E-005  0.66310613538706753     
 chl2c          41  0.43134658274005000        2.5582381488167241E-002  0.44304987499999998        2.5258441389268829E-017   2.0622792978798089E-016
 chl          41   3.5163511057577776E-005   8.1520319076618214E-005  0.43134658274005000     
 chl2c          42  0.75405660608452374        3.7949995630725070E-002  0.76234377499999995        8.8696384122736290E-018   3.0762706077495109E-016
 chl          42   6.1605143916963190E-005   8.1698301453588413E-005  0.75405660608452374     
 chl2c          43  0.29539924999986084        2.1185090152268007E-002  0.29539925000000000        8.8696384122736290E-018   2.7807966445014840E-006
 chl          43   2.4081041114982369E-005   8.1520319076618214E-005  0.29539924999986084     
 chl2c          44  0.61790770939550721        3.7536352708156646E-002  0.62417262500000004        8.8696384122736290E-018   2.7301658244411544E-016
 chl          44   5.0482010312690455E-005   8.1698301453588413E-005  0.61790770939550721     
 chl2c          45  0.30244816503028576        4.6544927192009838E-002  0.37662252499999999        3.3155746864819032E-018   2.5458467463379612E-018
 chl          45   2.4655670917406579E-005   8.1520319076618214E-005  0.30244816503028576     
 chl2c          46  0.51876034999974274        3.7083195475449568E-002  0.51876034999999998        8.8696384122736290E-018   4.6404500408431865E-006
 chl          46   4.2381839456448018E-005   8.1698301453588413E-005  0.51876034999974274     
 chl2c          47  0.61447426435937802        3.7519784612651236E-002  0.61962282499999999        8.8696384122736290E-018   3.2796023819016737E-016
 chl          47   5.0201503685104444E-005   8.1698301453588413E-005  0.61447426435937802     
 chl2c          48  0.70722138909091681        3.7823212136301673E-002  0.71424949999999998        8.8696384122736290E-018   3.1874446007640119E-016
 chl          48   5.7778786240375263E-005   8.1698301453588413E-005  0.70722138909091681     
 chl2c          49  0.52862830977113995        3.7152990741888416E-002  0.53276120000000005        8.8696384122736290E-018   3.0220737255588706E-016
 chl          49   4.3188035008583510E-005   8.1698301453588413E-005  0.52862830977113995     
 chl2c          50  0.38132569999987093        2.1533072915600981E-002  0.38132569999999999        8.8696384122736290E-018   4.9977588289279373E-006
 chl          50   3.1085792736104270E-005   8.1520319076618214E-005  0.38132569999987093     
 chl2c          51  0.22203112233788316        2.0700971146093840E-002  0.22275920000000002        8.8696384122736290E-018   3.0126433194973037E-016
 chl          51   1.8100047937923890E-005   8.1520319076618214E-005  0.22203112233788316     
 chl2c          52  0.63178536209848368        3.7581825176985564E-002  0.63698869999999996        8.8696384122736290E-018   3.4300083530443858E-016
 chl          52   5.1615790975938704E-005   8.1698301468233057E-005  0.63178536209848368     
 chl2c          53  0.74484549838703074        3.7925801262726190E-002  0.75269794999999995        8.8696384122736290E-018   3.1663402477233913E-016
 chl          53   6.0852612074479939E-005   8.1698301468233057E-005  0.74484549838703074     
 chl2c          54  0.51427352214564681        3.7082433371327092E-002  0.51861124999999997        8.8696384122736290E-018   2.7267775942767095E-016
 chl          54   4.2015273241853728E-005   8.1698301453588413E-005  0.51427352214564681     
 chl2c          55  0.57808279999978440        3.7357235588660491E-002  0.57808280000000001        8.8696384122736290E-018   6.8727366072629374E-006
 chl          55   4.7228382859516845E-005   8.1698301453588413E-005  0.57808279999978440     
 chl2c          56  0.61139838879007535        3.7507394187257688E-002  0.61626080000000005        8.8696384122736290E-018   3.4364740519778587E-016
 chl          56   4.9950209884563540E-005   8.1698301468233057E-005  0.61139838879007535     
 chl2c          57  0.68163462499879734        3.7727617852646313E-002  0.68163462500000005        8.8696384122736290E-018   1.7132979872171290E-006
 chl          57   5.5688391074355434E-005   8.1698301453588413E-005  0.68163462499879734     
 chl2c          58  0.69416802499966346        3.7765358178394853E-002  0.69416802499999997        8.8696384122736290E-018   6.3513402528738809E-006
 chl          58   5.6712348576030448E-005   8.1698301468233057E-005  0.69416802499966346     
 chl2c          59  0.53705127499942762        3.7173699120809672E-002  0.53705127500000005        8.8696384122736290E-018   2.2345792309104884E-006
 chl          59   4.3876176960937248E-005   8.1698301453588413E-005  0.53705127499942762     
 chl2c          60  0.64452154999961819        3.7607757740906807E-002  0.64452155000000000        8.8696384122736290E-018   4.8243807524347697E-006
 chl          60   5.2656315885202861E-005   8.1698301453588413E-005  0.64452154999961819     
 chl2c          61  0.70088049012359688        3.7805373434125003E-002  0.70794139999999994        8.8696384122736290E-018   3.1164239462721094E-016
 chl          61   5.7260745565056413E-005   8.1698301453588413E-005  0.70088049012359688     
 chl2c          62  0.75522588074476260        3.7956103087269030E-002  0.76481592499999995        8.8696384122736290E-018   2.6710935273184842E-016
 chl          62   6.1700671670637426E-005   8.1698301453588413E-005  0.75522588074476260     
 chl2c          63  0.72597904999957275        3.7855601011927406E-002  0.72597904999999996        8.8696384122736290E-018   5.4725338867941086E-006
 chl          63   5.9311255286486532E-005   8.1698301468233057E-005  0.72597904999957275     
 chl2c          64  0.47014121870520853        2.5708982294816416E-002  0.48435739999999999        2.5258441389268829E-017   2.0229626634696408E-016
 chl          64   3.8326062159918745E-005   8.1520319076618214E-005  0.47014121870520853     
 chl2c          65  0.76379974999854894        3.7953597170552002E-002  0.76379975000000000        8.8696384122736290E-018   1.7830500205672858E-006
 chl          65   6.2401142236742486E-005   8.1698301468233057E-005  0.76379974999854894     
 chl2c          66  0.21993266279831486        3.1840477731474713E-002  0.35213202499999996        7.1530177798909356E-018   2.0951986501156698E-018
 chl          66   1.7928980846688909E-005   8.1520319076618214E-005  0.21993266279831486     
 chl2c          67  0.74900738805892275        3.7937587124568600E-002  0.75736760000000003        8.8696384122736290E-018   3.0092027908122323E-016
 chl          67   6.1192631380602755E-005   8.1698301453588413E-005  0.74900738805892275     
 chl2c          68  0.72590779999962929        3.7855407263856986E-002  0.72590779999999999        8.8696384122736290E-018   6.3031993067592743E-006
 chl          68   5.9305434282511539E-005   8.1698301468233057E-005  0.72590779999962929     
 chl2c          69  0.45524217499975722        2.1732330561541505E-002  0.45524217500000003        8.8696384122736290E-018   3.7855972580224115E-006
 chl          69   3.7111487363113873E-005   8.1520319076618214E-005  0.45524217499975722     
 chl2c          70  0.46151960424591637        3.2658010878182209E-002  0.48694062500000002        7.1530177798909356E-018   3.1617861015028368E-017
 chl          70   3.7623225398241665E-005   8.1520319076618214E-005  0.46151960424591637     
 chl2c          71  0.20504787150137904        4.3481058864416305E-002  0.23986107500000001        3.3155746864819032E-018   2.3420700047959019E-018
 chl          71   1.6715567910773829E-005   8.1520319076618214E-005  0.20504787150137904     
 chl2c          72  0.62286930880792657        3.7549776402781669E-002  0.62790522500000001        8.8696384122736290E-018   3.4442007322657829E-016
 chl          72   5.0887364566299935E-005   8.1698301468233057E-005  0.62286930880792657     
 chl2c          73  0.23875968056509278        3.1852614277819484E-002  0.35362212500000001        7.1530177798909356E-018   2.6289460464552135E-018
 chl          73   1.9463765342297804E-005   8.1520319076618214E-005  0.23875968056509278     
 chl2c          74  0.64719589999966554        3.7616827685877569E-002  0.64719590000000005        8.8696384122736290E-018   5.5530504289280970E-006
 chl          74   5.2874805737699138E-005   8.1698301453588413E-005  0.64719589999966554     
 chl2c          75  0.70777418678728843        3.7826830779512356E-002  0.71554212500000003        8.8696384122736290E-018   2.8913461155767373E-016
 chl          75   5.7823948883581387E-005   8.1698301468233057E-005  0.70777418678728843     
 chl2c          76  0.55513977499978173        3.7257729557919804E-002  0.55513977500000000        8.8696384122736290E-018   6.2591662820654896E-006
 chl          76   4.5353976694939238E-005   8.1698301468233057E-005  0.55513977499978173     
 chl2c          77  0.52973029999967824        3.7138172437479272E-002  0.52973029999999999        8.8696384122736290E-018   3.8690068711565247E-006
 chl          77   4.3278065738473538E-005   8.1698301453588413E-005  0.52973029999967824     
 chl2c          78  0.45117492499379008        4.7515248899399322E-002  0.45117492500000000        3.3155746864819032E-018   5.4341515743349112E-008
 chl          78   3.6779923844863058E-005   8.1520319076618214E-005  0.45117492499379008     
 prod   9.5432238549176707E-009   3.1155404782997266E-011   10.000000000000000     
 dcdom   1.2334401169854651E-012  -1.3767131709660677E-010
 chl2c           1  0.60826437499996799        3.7477407714772232E-002  0.60826437499999997        1.1451732962483188E-018   6.6191154627115876E-006
 chl           1   1.1014623844708434E-005   1.8108283663183485E-005  0.60826437499996799     
 chl2c           2  0.48302389996115924        3.2640259920490348E-002  0.48302390000000001        9.0867428540194396E-019   2.7291552025169367E-009
 chl           2   8.6181036668038072E-006   1.7841981871904895E-005  0.48302389996115924     
 chl2c           3  0.75073246860781284        3.7922212503796585E-002  0.75128689999999998        1.1451732962483188E-018   5.8248456251878280E-016
 chl           3   1.3594476496712266E-005   1.8108283663183485E-005  0.75073246860781284     
 chl2c           4  0.77318742499997040        3.7976509103863923E-002  0.77318742499999993        1.1451732962483188E-018   1.1574383124670088E-005
 chl           4   1.4001097216705870E-005   1.8108283663183485E-005  0.77318742499997040     
 chl2c           5  0.48489679999972002        2.5710500362372445E-002  0.48489679999999996        3.3611511673064147E-018   1.4117284396913293E-006
 chl           5   8.6515199153396988E-006   1.7841981871904895E-005  0.48489679999972002     
 chl2c           6  0.28995035564364074        3.1261039902252048E-002  0.29222855000000003        9.0867428540194396E-019   1.6897939844243302E-017
 chl           6   5.1732889891462155E-006   1.7841981871904895E-005  0.28995035564364074     
 chl2c           7  0.22770739999934225        4.3064391842467263E-002  0.22770740000000000        4.1587393420394448E-019   1.6391911621569509E-008
 chl           7   4.0627513028868613E-006   1.7841981871904895E-005  0.22770739999934225     
 chl2c           8  0.49578364999665225        4.7969800906495587E-002  0.49578364999999996        4.1587393420394448E-019   1.5267236241730123E-008
 chl           8   8.8457628956271108E-006   1.7841981871904895E-005  0.49578364999665225     
 chl2c           9  0.28700202499998195        2.4803669054600401E-002  0.28700202499999999        3.3611511673064147E-018   7.6666447665354277E-006
 chl           9   5.1206849272496731E-006   1.7841981871904895E-005  0.28700202499998195     
 chl2c          10  0.39094662499993044        2.5387016219684602E-002  0.39094662499999999        3.3611511673064147E-018   3.6920916571959182E-006
 chl          10   6.9752625961311599E-006   1.7841981871904895E-005  0.39094662499993044     
 chl2c          11  0.49702105312858397        2.1820572217820047E-002  0.49737575000000001        1.1451732962483188E-018   3.9906464301509099E-016
 chl          11   8.8678406198752748E-006   1.7841981871904895E-005  0.49702105312858397     
 chl2c          12  0.28706804278641235        4.5290941298723353E-002  0.30768942500000002        4.1587393420394448E-019   8.9065877664374888E-019
 chl          12   5.1218628153983879E-006   1.7841981871904895E-005  0.28706804278641235     
 chl2c          13  0.75605066439230117        3.7935816987997487E-002  0.75666275000000005        1.1451732962483188E-018   5.3515834589868336E-016
 chl          13   1.3690779892077196E-005   1.8108283659907341E-005  0.75605066439230117     
 chl2c          14  0.39551335777077590        4.6856526101924839E-002  0.39804095000000000        4.1587393420394448E-019   1.2951307158777616E-017
 chl          14   7.0567421594424187E-006   1.7841981871904895E-005  0.39551335777077590     
 chl2c          15  0.25607262499999267        2.0954299823745293E-002  0.25607262500000000        1.1451732962483188E-018   5.1120295106908037E-006
 chl          15   4.5688431331409699E-006   1.7841981871904895E-005  0.25607262499999267     
 chl2c          16  0.71383952474243684        3.7823443882273475E-002  0.71433214999999994        1.1451732962483188E-018   5.9268690167967502E-016
 chl          16   1.2926408604028132E-005   1.8108283663183485E-005  0.71383952474243684     
 chl2c          17  0.62543039330117922        3.7542254757581245E-002  0.62580860000000005        1.1451732962483188E-018   5.9256024226936701E-016
 chl          17   1.1325470973474165E-005   1.8108283663183485E-005  0.62543039330117922     
 chl2c          18  0.47830733421300548        2.5694475239060960E-002  0.47925950000000000        3.3611511673064147E-018   4.0459754916109993E-016
 chl          18   8.5339507862275994E-006   1.7841981871904895E-005  0.47830733421300548     
 chl2c          19  0.63367129999997673        3.7570220750293731E-002  0.63367130000000005        1.1451732962483188E-018   9.8407682845993194E-006
 chl          19   1.1474699649617820E-005   1.8108283663183485E-005  0.63367129999997673     
 chl2c          20  0.50651954746879380        3.7020645196759419E-002  0.50678202500000002        1.1451732962483188E-018   5.5997223873536771E-016
 chl          20   9.1721996448528190E-006   1.8108283659907341E-005  0.50651954746879380     
 chl2c          21  0.71973184999997031        3.7838475073783531E-002  0.71973185000000006        1.1451732962483188E-018   9.9953342920090744E-006
 chl          21   1.3033108498869344E-005   1.8108283659907341E-005  0.71973184999997031     
 chl2c          22  0.64616892499997902        3.7613353106285476E-002  0.64616892500000001        1.1451732962483188E-018   1.1375231834753345E-005
 chl          22   1.1701010188233954E-005   1.8108283663183485E-005  0.64616892499997902     
 chl2c          23  0.36061714233430420        3.2286562315070731E-002  0.41564179999999995        9.0867428540194396E-019   1.2376176024637794E-018
 chl          23   6.4341245162268027E-006   1.7841981871904895E-005  0.36061714233430420     
 chl2c          24  0.57559989836505776        3.7348402796863071E-002  0.57597492500000003        1.1451732962483188E-018   5.0617814405196897E-016
 chl          24   1.0423126234208301E-005   1.8108283659907341E-005  0.57559989836505776     
 chl2c          25  0.29372590321506448        4.5426679235459781E-002  0.31406487500000002        4.1587393420394448E-019   9.4311429357535559E-019
 chl          25   5.2406522404720718E-006   1.7841981871904895E-005  0.29372590321506448     
 chl2c          26  0.44129452662517432        4.7955660680174553E-002  0.49427735000000000        4.1587393420394448E-019   8.5604354784590270E-019
 chl          26   7.8735689442172126E-006   1.7841981871904895E-005  0.44129452662517432     
 chl2c          27  0.30810240440759479        4.5333133499525620E-002  0.30964730000000001        4.1587393420394448E-019   1.2840884986602985E-017
 chl          27   5.4971575141306170E-006   1.7841981871904895E-005  0.30810240440759479     
 chl2c          28  0.28484536017592110        3.1209236063453518E-002  0.28776342500000002        9.0867428540194396E-019   1.2762273591372283E-017
 chl          28   5.0822057525550047E-006   1.7841981871904895E-005  0.28484536017592110     
 chl2c          29  0.68676297499996608        3.7743217595736761E-002  0.68676297499999994        1.1451732962483188E-018   7.9942928533247627E-006
 chl          29   1.2436098758421240E-005   1.8108283659907341E-005  0.68676297499996608     
 chl2c          30  0.38869169115542479        2.5380056985171612E-002  0.38930277499999999        3.3611511673064147E-018   4.1615010044143271E-016
 chl          30   6.9350301073551454E-006   1.7841981871904895E-005  0.38869169115542479     
 chl2c          31  0.63559384999991486        3.7576959810037038E-002  0.63559385000000002        1.1451732962483188E-018   2.7188033164846010E-006
 chl          31   1.1509513728291055E-005   1.8108283659907341E-005  0.63559384999991486     
 chl2c          32  0.24722667499999568        2.0893126428578448E-002  0.24722667500000001        1.1451732962483188E-018   8.0222649520407492E-006
 chl          32   4.4110138536012460E-006   1.7841981871904895E-005  0.24722667499999568     
 chl2c          33  0.60343137499997934        3.7458922634011876E-002  0.60343137499999999        1.1451732962483188E-018   1.0079120862491901E-005
 chl          33   1.0927106507787545E-005   1.8108283659907341E-005  0.60343137499997934     
 chl2c          34  0.38173781751693242        2.5350269098008315E-002  0.38241020000000003        3.3611511673064147E-018   3.6486845087809639E-016
 chl          34   6.8109592199576471E-006   1.7841981871904895E-005  0.38173781751693242     
 chl2c          35  0.49464311376251868        2.5740370148566064E-002  0.49574644999999995        3.3611511673064147E-018   3.7350958202998036E-016
 chl          35   8.8254134688134485E-006   1.7841981871904895E-005  0.49464311376251868     
 chl2c          36  0.69534322928488645        3.7770393924465726E-002  0.69587337500000002        1.1451732962483188E-018   5.2260722732770670E-016
 chl          36   1.2591472439164758E-005   1.8108283663183485E-005  0.69534322928488645     
 chl2c          37  0.33176604131005327        2.1353674699533250E-002  0.33194060000000003        1.1451732962483188E-018   3.6123685136554264E-016
 chl          37   5.9193636947676213E-006   1.7841981871904895E-005  0.33176604131005327     
 chl2c          38  0.38435508243181893        2.1543295686358745E-002  0.38455722500000000        1.1451732962483188E-018   4.1867501170428931E-016
 chl          38   6.8576564131230245E-006   1.7841981871904895E-005  0.38435508243181893     
 chl2c          39  0.46995990488725159        2.5670077108751441E-002  0.47091117500000002        3.3611511673064147E-018   3.9097951294201847E-016
 chl          39   8.3850161035204914E-006   1.7841981871904895E-005  0.46995990488725159     
 chl2c          40  0.66832404273030543        3.7687445774703773E-002  0.66875547499999999        1.1451732962483188E-018   5.9317525616622265E-016
 chl          40   1.2102201344685931E-005   1.8108283663183485E-005  0.66832404273030543     
 chl2c          41  0.44209941296217836        2.5582381488167241E-002  0.44304987499999998        3.3611511673064147E-018   3.4633455970548107E-016
 chl          41   7.8879297116509823E-006   1.7841981871904895E-005  0.44209941296217836     
 chl2c          42  0.76173883985455570        3.7949995630725070E-002  0.76234377499999995        1.1451732962483188E-018   5.4965395643220759E-016
 chl          42   1.3793782986855026E-005   1.8108283659907341E-005  0.76173883985455570     
 chl2c          43  0.29539924999999168        2.1185090152268007E-002  0.29539925000000000        1.1451732962483188E-018   6.0158370739488567E-006
 chl          43   5.2705080634741537E-006   1.7841981871904895E-005  0.29539924999999168     
 chl2c          44  0.62373463567397947        3.7536352708156646E-002  0.62417262500000004        1.1451732962483188E-018   5.0895837870039523E-016
 chl          44   1.1294763711293381E-005   1.8108283659907341E-005  0.62373463567397947     
 chl2c          45  0.35240694480366336        4.6544927192009838E-002  0.37662252499999999        4.1587393420394448E-019   1.1396921979988568E-018
 chl          45   6.2876383207203505E-006   1.7841981871904895E-005  0.35240694480366336     
 chl2c          46  0.51876034999997200        3.7083195475449568E-002  0.51876034999999998        1.1451732962483188E-018   5.5011246437598752E-006
 chl          46   9.3938595693123054E-006   1.8108283659907341E-005  0.51876034999997200     
 chl2c          47  0.61923875296238429        3.7519784612651236E-002  0.61962282499999999        1.1451732962483188E-018   5.7202375170414534E-016
 chl          47   1.1213350991850141E-005   1.8108283659907341E-005  0.61923875296238429     
 chl2c          48  0.71373013255764606        3.7823212136301673E-002  0.71424949999999998        1.1451732962483188E-018   5.6201832027272402E-016
 chl          48   1.2924427696977122E-005   1.8108283659907341E-005  0.71373013255764606     
 chl2c          49  0.53246234650225432        3.7152990741888416E-002  0.53276120000000005        1.1451732962483188E-018   5.4350602619285882E-016
 chl          49   9.6419792086826935E-006   1.8108283659907341E-005  0.53246234650225432     
 chl2c          50  0.38132569999998883        2.1533072915600981E-002  0.38132569999999999        1.1451732962483188E-018   7.4588668716698028E-006
 chl          50   6.8036062266912448E-006   1.7841981871904895E-005  0.38132569999998883     
 chl2c          51  0.22269252976925927        2.0700971146093840E-002  0.22275920000000002        1.1451732962483188E-018   4.2604017743719053E-016
 chl          51   3.9732760791517653E-006   1.7841981871904895E-005  0.22269252976925927     
 chl2c          52  0.63659375758178915        3.7581825176985564E-002  0.63698869999999996        1.1451732962483188E-018   5.8789739993976152E-016
 chl          52   1.1527620340502900E-005   1.8108283663183485E-005  0.63659375758178915     
 chl2c          53  0.75211879343080734        3.7925801262726190E-002  0.75269794999999995        1.1451732962483188E-018   5.5969625862532930E-016
 chl          53   1.3619580459856363E-005   1.8108283663183485E-005  0.75211879343080734     
 chl2c          54  0.51830859749838076        3.7082433371327092E-002  0.51861124999999997        1.1451732962483188E-018   5.0854254835513223E-016
 chl          54   9.3856791068694200E-006   1.8108283659907341E-005  0.51830859749838076     
 chl2c          55  0.57808279999998302        3.7357235588660491E-002  0.57808280000000001        1.1451732962483188E-018   1.1309639992257042E-005
 chl          55   1.0468087321313177E-005   1.8108283659907341E-005  0.57808279999998302     
 chl2c          56  0.61589155574209609        3.7507394187257688E-002  0.61626080000000005        1.1451732962483188E-018   5.8856747589858720E-016
 chl          56   1.1152738997137260E-005   1.8108283663183485E-005  0.61589155574209609     
 chl2c          57  0.68163462499954841        3.7727617852646313E-002  0.68163462500000005        1.1451732962483188E-018   5.8899362088017897E-007
 chl          57   1.2343233141906390E-005   1.8108283659907341E-005  0.68163462499954841     
 chl2c          58  0.69416802499997499        3.7765358178394853E-002  0.69416802499999997        1.1451732962483188E-018   1.1047243055468497E-005
 chl          58   1.2570191506611392E-005   1.8108283663183485E-005  0.69416802499997499     
 chl2c          59  0.53705127499997329        3.7173699120809672E-002  0.53705127500000005        1.1451732962483188E-018   6.1929868054284006E-006
 chl          59   9.7250768276144209E-006   1.8108283659907341E-005  0.53705127499997329     
 chl2c          60  0.64452154999997469        3.7607757740906807E-002  0.64452155000000000        1.1451732962483188E-018   9.3702353585461205E-006
 chl          60   1.1671179052322694E-005   1.8108283659907341E-005  0.64452154999997469     
 chl2c          61  0.70742393016423355        3.7805373434125003E-002  0.70794139999999994        1.1451732962483188E-018   5.5415752462227266E-016
 chl          61   1.2810233195220422E-005   1.8108283659907341E-005  0.70742393016423355     
 chl2c          62  0.76414885920298581        3.7956103087269030E-002  0.76481592499999995        1.1451732962483188E-018   5.0165764462362488E-016
 chl          62   1.3837424300842264E-005   1.8108283659907341E-005  0.76414885920298581     
 chl2c          63  0.72597904999996932        3.7855601011927406E-002  0.72597904999999996        1.1451732962483188E-018   9.8394288590372618E-006
 chl          63   1.3146234570927910E-005   1.8108283663183485E-005  0.72597904999996932     
 chl2c          64  0.48320861534910331        2.5708982294816416E-002  0.48435739999999999        3.3611511673064147E-018   3.4238918128121545E-016
 chl          64   8.6213993554069668E-006   1.7841981871904895E-005  0.48320861534910331     
 chl2c          65  0.76379974999993805        3.7953597170552002E-002  0.76379975000000000        1.1451732962483188E-018   5.3901644418734533E-006
 chl          65   1.3831102534867509E-005   1.8108283663183485E-005  0.76379974999993805     
 chl2c          66  0.30080104215965831        3.1840477731474713E-002  0.35213202499999996        9.0867428540194396E-019   9.3752643769554594E-019
 chl          66   5.3668867412627237E-006   1.7841981871904895E-005  0.30080104215965831     
 chl2c          67  0.75676214663885222        3.7937587124568600E-002  0.75736760000000003        1.1451732962483188E-018   5.4203414424488893E-016
 chl          67   1.3703663614416730E-005   1.8108283659907341E-005  0.75676214663885222     
 chl2c          68  0.72590779999997279        3.7855407263856986E-002  0.72590779999999999        1.1451732962483188E-018   1.1077766638212520E-005
 chl          68   1.3144944355716972E-005   1.8108283663183485E-005  0.72590779999997279     
 chl2c          69  0.45524217499997083        2.1732330561541505E-002  0.45524217500000003        1.1451732962483188E-018   4.0608761089538020E-006
 chl          69   8.1224226336760346E-006   1.7841981871904895E-005  0.45524217499997083     
 chl2c          70  0.48018424796471387        3.2658010878182209E-002  0.48694062500000002        9.0867428540194396E-019   1.5723465912569362E-017
 chl          70   8.5674386473607094E-006   1.7841981871904895E-005  0.48018424796471387     
 chl2c          71  0.23986107499708909        4.3481058864416305E-002  0.23986107500000001        4.1587393420394448E-019   4.1097911921168096E-009
 chl          71   4.2795969518736841E-006   1.7841981871904895E-005  0.23986107499708909     
 chl2c          72  0.62752241894644289        3.7549776402781669E-002  0.62790522500000001        1.1451732962483188E-018   5.8936692912119102E-016
 chl          72   1.1363353967289254E-005   1.8108283663183485E-005  0.62752241894644289     
 chl2c          73  0.31114912585921062        3.1852614277819484E-002  0.35362212500000001        9.0867428540194396E-019   1.1769915052752522E-018
 chl          73   5.5515170630390904E-006   1.7841981871904895E-005  0.31114912585921062     
 chl2c          74  0.64719589999997673        3.7616827685877569E-002  0.64719590000000005        1.1451732962483188E-018   1.0277608402658501E-005
 chl          74   1.1719606940728605E-005   1.8108283659907341E-005  0.64719589999997673     
 chl2c          75  0.71498767639747340        3.7826830779512356E-002  0.71554212500000003        1.1451732962483188E-018   5.2834023646101071E-016
 chl          75   1.2947199659885887E-005   1.8108283663183485E-005  0.71498767639747340     
 chl2c          76  0.55513977499998290        3.7257729557919804E-002  0.55513977500000000        1.1451732962483188E-018   1.0330323614772591E-005
 chl          76   1.0052628518415545E-005   1.8108283663183485E-005  0.55513977499998290     
 chl2c          77  0.52973029999998067        3.7138172437479272E-002  0.52973029999999999        1.1451732962483188E-018   8.3491137282395918E-006
 chl          77   9.5925065356474641E-006   1.8108283659907341E-005  0.52973029999998067     
 chl2c          78  0.44858049938633077        4.7515248899399322E-002  0.45117492500000000        4.1587393420394448E-019   1.6220932863768227E-017
 chl          78   8.0035651381409584E-006   1.7841981871904895E-005  0.44858049938633077     
 prod   4.2612663918449180E-009   3.9175687010569824E-012   10.000000000000000     
 dcdom   1.2331183776165528E-012  -9.6304268894226924E-011
 chl2c           1  0.60826437499999619        3.7477407714772232E-002  0.60826437499999997        1.8642607345765930E-019   9.2113808944622758E-006
 chl           1   8.2416254392289238E-006   1.3549413343875309E-005  0.60826437499999619     
 chl2c           2  0.46035999245102277        3.2640259920490348E-002  0.48302390000000001        1.4492939405045676E-019   7.1098082040340100E-019
 chl           2   6.2291447238804958E-006   1.3531029685519877E-005  0.46035999245102277     
 chl2c           3  0.75120186834594904        3.7922212503796585E-002  0.75128689999999998        1.8642607345765930E-019   6.1866921394941259E-016
 chl           3   1.0178344618910665E-005   1.3549413343875309E-005  0.75120186834594904     
 chl2c           4  0.77318742499999515        3.7976509103863923E-002  0.77318742499999993        1.8642607345765930E-019   1.1464673210087322E-005
 chl           4   1.0476236013611525E-005   1.3549413343875309E-005  0.77318742499999515     
 chl2c           5  0.48474377609749331        2.5710500362372445E-002  0.48489679999999996        5.6698560756138328E-019   4.3545604667257090E-016
 chl           5   6.5590824242461827E-006   1.3531029685519877E-005  0.48474377609749331     
 chl2c           6  0.29178825792980517        3.1261039902252048E-002  0.29222855000000003        1.4492939405045676E-019   1.4033825474538589E-017
 chl           6   3.9481955799343247E-006   1.3531029685519877E-005  0.29178825792980517     
 chl2c           7  0.22770739999985914        4.3064391842467263E-002  0.22770740000000000        6.5255232505023601E-020   1.2011177902535412E-008
 chl           7   3.0811155890106431E-006   1.3531029685519877E-005  0.22770739999985914     
 chl2c           8  0.49578364999939756        4.7969800906495587E-002  0.49578364999999996        6.5255232505023601E-020   1.3313991028560756E-008
 chl           8   6.7084632857372455E-006   1.3531029685519877E-005  0.49578364999939756     
 chl2c           9  0.28700202499999727        2.4803669054600401E-002  0.28700202499999999        5.6698560756138328E-019   8.4239635072348247E-006
 chl           9   3.8834329200792814E-006   1.3531029685519877E-005  0.28700202499999727     
 chl2c          10  0.39094662499996086        2.5387016219684602E-002  0.39094662499999999        5.6698560756138328E-019   1.1072533734944990E-006
 chl          10   5.2899103883282777E-006   1.3531029685519877E-005  0.39094662499996086     
 chl2c          11  0.49732539071605836        2.1820572217820047E-002  0.49737575000000001        1.8642607345765930E-019   4.5784908447314919E-016
 chl          11   6.7293246251417569E-006   1.3531029685519877E-005  0.49732539071605836     
 chl2c          12  0.30351495919729637        4.5290941298723353E-002  0.30768942500000002        6.5255232505023601E-020   7.2992310173883936E-019
 chl          12   4.1068699228979714E-006   1.3531029685519877E-005  0.30351495919729637     
 chl2c          13  0.75658368179918922        3.7935816987997487E-002  0.75666275000000005        1.8642607345765930E-019   6.7489175854089534E-016
 chl          13   1.0251265032511148E-005   1.3549413342002287E-005  0.75658368179918922     
 chl2c          14  0.39756041403480685        4.6856526101924839E-002  0.39804095000000000        6.5255232505023601E-020   1.0744602086172749E-017
 chl          14   5.3794017640925449E-006   1.3531029685519877E-005  0.39756041403480685     
 chl2c          15  0.25607262499999756        2.0954299823745293E-002  0.25607262500000000        1.8642607345765930E-019   2.4731615316881315E-006
 chl          15   3.4649262905239665E-006   1.3531029685519877E-005  0.25607262499999756     
 chl2c          16  0.71425527735819483        3.7823443882273475E-002  0.71433214999999994        1.8642607345765930E-019   6.1866921394941259E-016
 chl          16   9.6777399859704848E-006   1.3549413343875309E-005  0.71425527735819483     
 chl2c          17  0.62574959887964554        3.7542254757581245E-002  0.62580860000000005        1.8642607345765930E-019   6.1866921394941259E-016
 chl          17   8.4785399649844911E-006   1.3549413343875309E-005  0.62574959887964554     
 chl2c          18  0.47911851623524521        2.5694475239060960E-002  0.47925950000000000        5.6698560756138328E-019   4.6172843520633741E-016
 chl          18   6.4829668660613399E-006   1.3531029685519877E-005  0.47911851623524521     
 chl2c          19  0.63367129999999683        3.7570220750293731E-002  0.63367130000000005        1.8642607345765930E-019   1.1461985482653702E-005
 chl          19   8.5858743678507702E-006   1.3549413343875309E-005  0.63367129999999683     
 chl2c          20  0.50674761565348236        3.7020645196759419E-002  0.50678202500000002        1.8642607345765930E-019   6.9568581539067640E-016
 chl          20   6.8661329045631407E-006   1.3549413342002287E-005  0.50674761565348236     
 chl2c          21  0.71973184999999618        3.7838475073783531E-002  0.71973185000000006        1.8642607345765930E-019   1.2472027824944910E-005
 chl          21   9.7519443310539363E-006   1.3549413342002287E-005  0.71973184999999618     
 chl2c          22  0.64616892499999656        3.7613353106285476E-002  0.64616892500000001        1.8642607345765930E-019   1.1288337300066065E-005
 chl          22   8.7552098547925162E-006   1.3549413343875309E-005  0.64616892499999656     
 chl2c          23  0.40365631020433895        3.2286562315070731E-002  0.41564179999999995        1.4492939405045676E-019   1.0143822875183490E-018
 chl          23   5.4618855161223308E-006   1.3531029685519877E-005  0.40365631020433895     
 chl2c          24  0.57592734015676994        3.7348402796863071E-002  0.57597492500000003        1.8642607345765930E-019   6.4979937079993310E-016
 chl          24   7.8034775867440284E-006   1.3549413342002287E-005  0.57592734015676994     
 chl2c          25  0.30995558656464900        4.5426679235459781E-002  0.31406487500000002        6.5255232505023601E-020   7.7292535807698385E-019
 chl          25   4.1940182429989914E-006   1.3531029685519877E-005  0.30995558656464900     
 chl2c          26  0.48317027814638375        4.7955660680174553E-002  0.49427735000000000        6.5255232505023601E-020   7.0154685988911468E-019
 chl          26   6.5377913767596144E-006   1.3531029685519877E-005  0.48317027814638375     
 chl2c          27  0.30935390710722227        4.5333133499525620E-002  0.30964730000000001        6.5255232505023601E-020   1.0652674560993012E-017
 chl          27   4.1858769003993833E-006   1.3531029685519877E-005  0.30935390710722227     
 chl2c          28  0.28719775826188854        3.1209236063453518E-002  0.28776342500000002        1.4492939405045676E-019   1.0587233167675380E-017
 chl          28   3.8860813926563754E-006   1.3531029685519877E-005  0.28719775826188854     
 chl2c          29  0.68676297499999328        3.7743217595736761E-002  0.68676297499999994        1.8642607345765930E-019   6.5527780283856114E-006
 chl          29   9.3052354162580918E-006   1.3549413342002287E-005  0.68676297499999328     
 chl2c          30  0.38921132255440666        2.5380056985171612E-002  0.38930277499999999        5.6698560756138328E-019   4.6969904884757597E-016
 chl          30   5.2664299594241289E-006   1.3531029685519877E-005  0.38921132255440666     
 chl2c          31  0.63559384999986634        3.7576959810037038E-002  0.63559385000000002        1.8642607345765930E-019   2.8162095128627640E-007
 chl          31   8.6119237912827897E-006   1.3549413342002287E-005  0.63559384999986634     
 chl2c          32  0.24722667499999929        2.0893126428578448E-002  0.24722667500000001        1.8642607345765930E-019   7.8303016777692011E-006
 chl          32   3.3452314784773651E-006   1.3531029685519877E-005  0.24722667499999929     
 chl2c          33  0.60343137499999722        3.7458922634011876E-002  0.60343137499999999        1.8642607345765930E-019   1.2227680757087615E-005
 chl          33   8.1761411234077470E-006   1.3549413342002287E-005  0.60343137499999722     
 chl2c          34  0.38231446448367490        2.5350269098008315E-002  0.38241020000000003        5.6698560756138328E-019   4.3293146635720053E-016
 chl          34   5.1731083681322400E-006   1.3531029685519877E-005  0.38231446448367490     
 chl2c          35  0.49558793290800457        2.5740370148566064E-002  0.49574644999999995        5.6698560756138328E-019   4.3938606443125046E-016
 chl          35   6.7058150319636434E-006   1.3531029685519877E-005  0.49558793290800457     
 chl2c          36  0.69580042369579254        3.7770393924465726E-002  0.69587337500000002        1.8642607345765930E-019   6.1866921394941259E-016
 chl          36   9.4276875454978652E-006   1.3549413343875309E-005  0.69580042369579254     
 chl2c          37  0.33191672681854179        2.1353674699533250E-002  0.33194060000000003        1.8642607345765930E-019   4.3018560267133876E-016
 chl          37   4.4911750837022808E-006   1.3531029685519877E-005  0.33191672681854179     
 chl2c          38  0.38452798622685774        2.1543295686358745E-002  0.38455722500000000        1.8642607345765930E-019   4.7141830271096772E-016
 chl          38   5.2030595965487907E-006   1.3531029685519877E-005  0.38452798622685774     
 chl2c          39  0.47077216327139565        2.5670077108751441E-002  0.47091117500000002        5.6698560756138328E-019   4.5210610039432137E-016
 chl          39   6.3700321163416652E-006   1.3531029685519877E-005  0.47077216327139565     
 chl2c          40  0.66868809839938026        3.7687445774703773E-002  0.66875547499999999        1.8642607345765930E-019   6.1866921394941259E-016
 chl          40   9.0603314433431687E-006   1.3549413343875309E-005  0.66868809839938026     
 chl2c          41  0.44291701092670854        2.5582381488167241E-002  0.44304987499999998        5.6698560756138328E-019   4.1870626114452001E-016
 chl          41   5.9931232230710249E-006   1.3531029685519877E-005  0.44291701092670854     
 chl2c          42  0.76226494266715561        3.7949995630725070E-002  0.76234377499999995        1.8642607345765930E-019   6.8711445209990594E-016
 chl          42   1.0328242784314966E-005   1.3549413342002287E-005  0.76226494266715561     
 chl2c          43  0.29539924999999900        2.1185090152268007E-002  0.29539925000000000        1.8642607345765930E-019   8.0657241936026094E-006
 chl          43   3.9970560208302942E-006   1.3531029685519877E-005  0.29539924999999900     
 chl2c          44  0.62411695307489179        3.7536352708156646E-002  0.62417262500000004        1.8642607345765930E-019   6.5224553471954606E-016
 chl          44   8.4564185709627532E-006   1.3549413342002287E-005  0.62411695307489179     
 chl2c          45  0.37173225233910384        4.6544927192009838E-002  0.37662252499999999        6.5255232505023601E-020   9.3409017767645476E-019
 chl          45   5.0299201414655801E-006   1.3531029685519877E-005  0.37173225233910384     
 chl2c          46  0.51876034999999154        3.7083195475449568E-002  0.51876034999999998        1.8642607345765930E-019   2.9993134994833273E-006
 chl          46   7.0288984075916614E-006   1.3549413342002287E-005  0.51876034999999154     
 chl2c          47  0.61957210731631862        3.7519784612651236E-002  0.61962282499999999        1.8642607345765930E-019   7.0556415882060701E-016
 chl          47   8.3948385772042003E-006   1.3549413342002287E-005  0.61957210731631862     
 chl2c          48  0.71418131796023177        3.7823212136301673E-002  0.71424949999999998        1.8642607345765930E-019   6.9737294976576214E-016
 chl          48   9.6767378781791411E-006   1.3549413342002287E-005  0.71418131796023177     
 chl2c          49  0.53272240699280637        3.7152990741888416E-002  0.53276120000000005        1.8642607345765930E-019   6.8195664021488034E-016
 chl          49   7.2180760888919029E-006   1.3549413342002287E-005  0.53272240699280637     
 chl2c          50  0.38132569999999827        2.1533072915600981E-002  0.38132569999999999        1.8642607345765930E-019   8.1913205162442743E-006
 chl          50   5.1597293665516234E-006   1.3531029685519877E-005  0.38132569999999827     
 chl2c          51  0.22274949113610662        2.0700971146093840E-002  0.22275920000000002        1.8642607345765930E-019   4.7638778150408169E-016
 chl          51   3.0140299769971053E-006   1.3531029685519877E-005  0.22274949113610662     
 chl2c          52  0.63692757203624573        3.7581825176985564E-002  0.63698869999999996        1.8642607345765930E-019   6.1866921394941259E-016
 chl          52   8.6299949436300099E-006   1.3549413343875309E-005  0.63692757203624573     
 chl2c          53  0.75269794999468242        3.7925801262726190E-002  0.75269794999999995        1.8642607345765930E-019   9.9312844419667927E-009
 chl          53   1.0198615647565540E-005   1.3549413343875309E-005  0.75269794999468242     
 chl2c          54  0.51857279431725634        3.7082433371327092E-002  0.51861124999999997        1.8642607345765930E-019   6.5188020412959002E-016
 chl          54   7.0263571381216402E-006   1.3549413342002287E-005  0.51857279431725634     
 chl2c          55  0.57808279999999757        3.7357235588660491E-002  0.57808280000000001        1.8642607345765930E-019   1.2877981606852155E-005
 chl          55   7.8326828031020065E-006   1.3549413342002287E-005  0.57808279999999757     
 chl2c          56  0.61620358539344133        3.7507394187257688E-002  0.61626080000000005        1.8642607345765930E-019   6.1866921394941259E-016
 chl          56   8.3491970824737022E-006   1.3549413343875309E-005  0.61620358539344133     
 chl2c          57  0.68157420364131704        3.7727617852646313E-002  0.68163462500000005        1.8642607345765930E-019   7.1672236699685673E-016
 chl          57   9.2349306083822452E-006   1.3549413342002287E-005  0.68157420364131704     
 chl2c          58  0.69416802499999608        3.7765358178394853E-002  0.69416802499999997        1.8642607345765930E-019   1.1437644225143335E-005
 chl          58   9.4055695008265162E-006   1.3549413343875309E-005  0.69416802499999608     
 chl2c          59  0.53705127499999739        3.7173699120809672E-002  0.53705127500000005        1.8642607345765930E-019   1.0114261541978821E-005
 chl          59   7.2767297108243034E-006   1.3549413342002287E-005  0.53705127499999739     
 chl2c          60  0.64452154999999667        3.7607757740906807E-002  0.64452155000000000        1.8642607345765930E-019   1.1862524494944302E-005
 chl          60   8.7328888887779491E-006   1.3549413342002287E-005  0.64452154999999667     
 chl2c          61  0.70787378635529641        3.7805373434125003E-002  0.70794139999999994        1.8642607345765930E-019   6.9086859304808525E-016
 chl          61   9.5912745252961301E-006   1.3549413342002287E-005  0.70787378635529641     
 chl2c          62  0.76473150569027704        3.7956103087269030E-002  0.76481592499999995        1.8642607345765930E-019   6.4580405129247831E-016
 chl          62   1.0361663266249337E-005   1.3549413342002287E-005  0.76473150569027704     
 chl2c          63  0.72597904999999563        3.7855601011927406E-002  0.72597904999999996        1.8642607345765930E-019   1.1464673488212743E-005
 chl          63   9.8365902274438599E-006   1.3549413343875309E-005  0.72597904999999563     
 chl2c          64  0.48419742734048860        2.5708982294816416E-002  0.48435739999999999        5.6698560756138328E-019   4.1560875836626585E-016
 chl          64   6.5516897629965048E-006   1.3531029685519877E-005  0.48419742734048860     
 chl2c          65  0.76379974999999367        3.7953597170552002E-002  0.76379975000000000        1.8642607345765930E-019   8.5634300308300888E-006
 chl          65   1.0349038524698540E-005   1.3549413343875309E-005  0.76379974999999367     
 chl2c          66  0.34081342423959604        3.1840477731474713E-002  0.35213202499999996        1.4492939405045676E-019   7.6834444612329794E-019
 chl          66   4.6115565606096537E-006   1.3531029685519877E-005  0.34081342423959604     
 chl2c          67  0.75728906214634117        3.7937587124568600E-002  0.75736760000000003        1.8642607345765930E-019   6.8071611929000295E-016
 chl          67   1.0260822522398035E-005   1.3549413342002287E-005  0.75728906214634117     
 chl2c          68  0.72590779999999566        3.7855407263856986E-002  0.72590779999999999        1.8642607345765930E-019   1.1390167896646575E-005
 chl          68   9.8356248317431099E-006   1.3549413343875309E-005  0.72590779999999566     
 chl2c          69  0.45524217499998859        2.1732330561541505E-002  0.45524217500000003        1.8642607345765930E-019   1.6957678466913156E-006
 chl          69   6.1598953840254807E-006   1.3531029685519877E-005  0.45524217499998859     
 chl2c          70  0.48562795940167403        3.2658010878182209E-002  0.48694062500000002        1.4492939405045676E-019   1.3054254303155683E-017
 chl          70   6.5710463347824933E-006   1.3531029685519877E-005  0.48562795940167403     
 chl2c          71  0.23986107499978399        4.3481058864416305E-002  0.23986107500000001        6.5255232505023601E-020   8.6891565787614077E-009
 chl          71   3.2455673262227868E-006   1.3531029685519877E-005  0.23986107499978399     
 chl2c          72  0.62784582789731858        3.7549776402781669E-002  0.62790522500000001        1.8642607345765930E-019   6.1866921394941259E-016
 chl          72   8.5069426384083695E-006   1.3549413343875309E-005  0.62784582789731858     
 chl2c          73  0.34447173445626789        3.1852614277819484E-002  0.35362212500000001        1.4492939405045676E-019   9.6467244117898286E-019
 chl          73   4.6610572647502807E-006   1.3531029685519877E-005  0.34447173445626789     
 chl2c          74  0.64719589999999705        3.7616827685877569E-002  0.64719590000000005        1.8642607345765930E-019   1.2648423795111774E-005
 chl          74   8.7691247623491371E-006   1.3549413342002287E-005  0.64719589999999705     
 chl2c          75  0.71546499172949718        3.7826830779512356E-002  0.71554212500000003        1.8642607345765930E-019   6.1866921394941259E-016
 chl          75   9.6941309060152866E-006   1.3549413343875309E-005  0.71546499172949718     
 chl2c          76  0.55513977499999712        3.7257729557919804E-002  0.55513977500000000        1.8642607345765930E-019   9.9589682375613302E-006
 chl          76   7.5218182751008978E-006   1.3549413343875309E-005  0.55513977499999712     
 chl2c          77  0.52973029999999766        3.7138172437479272E-002  0.52973029999999999        1.8642607345765930E-019   1.1329293867885692E-005
 chl          77   7.1775347944828419E-006   1.3549413342002287E-005  0.52973029999999766     
 chl2c          78  0.45068236110842330        4.7515248899399322E-002  0.45117492500000000        6.5255232505023601E-020   1.3469091078719964E-017
 chl          78   6.0981964068982651E-006   1.3531029685519877E-005  0.45068236110842330     
 prod   3.4912230679731718E-009   6.1674291300130429E-013   10.000000000000000     
 dcdom   1.2343798307638294E-012  -7.5270056924048059E-011
 chl2c           1  0.60826437499999930        3.7477407714772232E-002  0.60826437499999997        3.6175746718988146E-020   1.0415528871421516E-005
 chl           1   5.6422247468328533E-006   9.2759414799409543E-006  0.60826437499999930     
 chl2c           2  0.47730774801032450        3.2640259920490348E-002  0.48302390000000001        2.7516158257833041E-020   5.5490819595345713E-019
 chl           2   4.4189449976942280E-006   9.2580625730773671E-006  0.47730774801032450     
 chl2c           3  0.75127093894846009        3.7922212503796585E-002  0.75128689999999998        3.6175746718988146E-020   6.3962939556269686E-016
 chl           3   6.9687452652662090E-006   9.2759414799409543E-006  0.75127093894846009     
 chl2c           4  0.77318742499999893        3.7976509103863923E-002  0.77318742499999993        3.6175746718988146E-020   1.1230171233140461E-005
 chl           4   7.1720413073262256E-006   9.2759414799409543E-006  0.77318742499999893     
 chl2c           5  0.48486807808309285        2.5710500362372445E-002  0.48489679999999996        1.1399069153941708E-019   4.6655073939993670E-016
 chl           5   4.4889390065810364E-006   9.2580625730773671E-006  0.48486807808309285     
 chl2c           6  0.29212323378618110        3.1261039902252048E-002  0.29222855000000003        2.7516158257833041E-020   1.1151962699319629E-017
 chl           6   2.7044951774421731E-006   9.2580625730773671E-006  0.29212323378618110     
 chl2c           7  0.22770739999995626        4.3064391842467263E-002  0.22770740000000000        1.2168981158232522E-020   7.2106579888962354E-009
 chl           7   2.1081293575523522E-006   9.2580625730773671E-006  0.22770739999995626     
 chl2c           8  0.49578364999985203        4.7969800906495587E-002  0.49578364999999996        1.2168981158232522E-020   1.0105881909922299E-008
 chl           8   4.5899960544073191E-006   9.2580625730773671E-006  0.49578364999985203     
 chl2c           9  0.28700202499999944        2.4803669054600401E-002  0.28700202499999999        1.1399069153941708E-019   8.4595802633390194E-006
 chl           9   2.6570827060499098E-006   9.2580625730773671E-006  0.28700202499999944     
 chl2c          10  0.39092853100805930        2.5387016219684602E-002  0.39094662499999999        1.1399069153941708E-019   4.8141524168650160E-016
 chl          10   3.6192408016738288E-006   9.2580625730773671E-006  0.39092853100805930     
 chl2c          11  0.49736650236767460        2.1820572217820047E-002  0.49737575000000001        3.6175746718988146E-020   4.8385818664442086E-016
 chl          11   4.6046502006725636E-006   9.2580625730773671E-006  0.49736650236767460     
 chl2c          12  0.30668160984790954        4.5290941298723353E-002  0.30768942500000002        1.2168981158232522E-020   5.6969662158228531E-019
 chl          12   2.8392775339840467E-006   9.2580625730773671E-006  0.30668160984790954     
 chl2c          13  0.75664886861468150        3.7935816987997487E-002  0.75666275000000005        3.6175746718988146E-020   7.4602166635916152E-016
 chl          13   7.0186306254693075E-006   9.2759414790633875E-006  0.75664886861468150     
 chl2c          14  0.39792795499699790        4.6856526101924839E-002  0.39804095000000000        1.2168981158232522E-020   8.5289818277987219E-018
 chl          14   3.6840419069389212E-006   9.2580625730773671E-006  0.39792795499699790     
 chl2c          15  0.25607020878104186        2.0954299823745293E-002  0.25607262500000000        3.6175746718988146E-020   4.9087784363302918E-016
 chl          15   2.3707140159958712E-006   9.2580625730773671E-006  0.25607020878104186     
 chl2c          16  0.71433214999997841        3.7823443882273475E-002  0.71433214999999994        3.6175746718988146E-020   4.2938985967995393E-007
 chl          16   6.6261032206402038E-006   9.2759414799409543E-006  0.71433214999997841     
 chl2c          17  0.62579752523645205        3.7542254757581245E-002  0.62580860000000005        3.6175746718988146E-020   6.3962939556269686E-016
 chl          17   5.8048612223852020E-006   9.2759414799409543E-006  0.62579752523645205     
 chl2c          18  0.47923260957296498        2.5694475239060960E-002  0.47925950000000000        1.1399069153941708E-019   4.8680920993288565E-016
 chl          18   4.4367654864856658E-006   9.2580625730773671E-006  0.47923260957296498     
 chl2c          19  0.63367129999999938        3.7570220750293731E-002  0.63367130000000005        3.6175746718988146E-020   1.1249828715337505E-005
 chl          19   5.8778978963181025E-006   9.2759414799409543E-006  0.63367129999999938     
 chl2c          20  0.50677593847414037        3.7020645196759419E-002  0.50678202500000002        3.6175746718988146E-020   7.6322963721594198E-016
 chl          20   4.7008239482835536E-006   9.2759414790633875E-006  0.50677593847414037     
 chl2c          21  0.71973184999999940        3.7838475073783531E-002  0.71973185000000006        3.6175746718988146E-020   1.3208230747575127E-005
 chl          21   6.6761905212180224E-006   9.2759414790633875E-006  0.71973184999999940     
 chl2c          22  0.64616892499999934        3.7613353106285476E-002  0.64616892500000001        3.6175746718988146E-020   1.0511531484168394E-005
 chl          22   5.9938251344563492E-006   9.2759414799409543E-006  0.64616892499999934     
 chl2c          23  0.41564179999617207        3.2286562315070731E-002  0.41564179999999995        2.7516158257833041E-020   6.2092505524365860E-010
 chl          23   3.8480377923510690E-006   9.2580625730773671E-006  0.41564179999617207     
 chl2c          24  0.57596664737020964        3.7348402796863071E-002  0.57597492500000003        3.6175746718988146E-020   7.2490721424417707E-016
 chl          24   5.3426329148984030E-006   9.2759414790633875E-006  0.57596664737020964     
 chl2c          25  0.31406487499637992        4.5426679235459781E-002  0.31406487500000002        1.2168981158232522E-020   1.6578480523167881E-010
 chl          25   2.9076322647222066E-006   9.2580625730773671E-006  0.31406487499637992     
 chl2c          26  0.49157732077105892        4.7955660680174553E-002  0.49427735000000000        1.2168981158232522E-020   5.4754309339988768E-019
 chl          26   4.5510535952041881E-006   9.2580625730773671E-006  0.49157732077105892     
 chl2c          27  0.30957832215179226        4.5333133499525620E-002  0.30964730000000001        1.2168981158232522E-020   8.4557555702939780E-018
 chl          27   2.8660954777495958E-006   9.2580625730773671E-006  0.30957832215179226     
 chl2c          28  0.28762791931451515        3.1209236063453518E-002  0.28776342500000002        2.7516158257833041E-020   8.4036299253468089E-018
 chl          28   2.6628772747778294E-006   9.2580625730773671E-006  0.28762791931451515     
 chl2c          29  0.68676297499999739        3.7743217595736761E-002  0.68676297499999994        3.6175746718988146E-020   3.2751063944610416E-006
 chl          29   6.3703731660874480E-006   9.2759414790633875E-006  0.68676297499999739     
 chl2c          30  0.38928524839010986        2.5380056985171612E-002  0.38930277499999999        1.1399069153941708E-019   4.9282975269370618E-016
 chl          30   3.6040271883716023E-006   9.2580625730773671E-006  0.38928524839010986     
 chl2c          31  0.63558434782616013        3.7576959810037038E-002  0.63559385000000002        3.6175746718988146E-020   7.6898420081130494E-016
 chl          31   5.8956432154441304E-006   9.2759414790633875E-006  0.63558434782616013     
 chl2c          32  0.24722667499999984        2.0893126428578448E-002  0.24722667500000001        3.6175746718988146E-020   5.8648658536484495E-006
 chl          32   2.2888400268838604E-006   9.2580625730773671E-006  0.24722667499999984     
 chl2c          33  0.60343137499999944        3.7458922634011876E-002  0.60343137499999999        3.6175746718988146E-020   1.2898466241630011E-005
 chl          33   5.5973941211307481E-006   9.2759414790633875E-006  0.60343137499999944     
 chl2c          34  0.38239225980858865        2.5350269098008315E-002  0.38241020000000003        1.1399069153941708E-019   4.6456969989776937E-016
 chl          34   3.5402114687683712E-006   9.2580625730773671E-006  0.38239225980858865     
 chl2c          35  0.49571662478123202        2.5740370148566064E-002  0.49574644999999995        1.1399069153941708E-019   4.6962245201514930E-016
 chl          35   4.5893755307393603E-006   9.2580625730773671E-006  0.49571662478123202     
 chl2c          36  0.69585968160965483        3.7770393924465726E-002  0.69587337500000002        3.6175746718988146E-020   6.3962939556269686E-016
 chl          36   6.4547536848615025E-006   9.2759414799409543E-006  0.69585968160965483     
 chl2c          37  0.33193629000018243        2.1353674699533250E-002  0.33194060000000003        3.6175746718988146E-020   4.6240802992862654E-016
 chl          37   3.0730869430968443E-006   9.2580625730773671E-006  0.33193629000018243     
 chl2c          38  0.38455181160028956        2.1543295686358745E-002  0.38455722500000000        3.6175746718988146E-020   4.9412093000333418E-016
 chl          38   3.5602047343857399E-006   9.2580625730773671E-006  0.38455181160028956     
 chl2c          39  0.47088481551484240        2.5670077108751441E-002  0.47091117500000002        1.1399069153941708E-019   4.7946416301461908E-016
 chl          39   4.3594810867484033E-006   9.2580625730773671E-006  0.47088481551484240     
 chl2c          40  0.66875547499998023        3.7687445774703773E-002  0.66875547499999999        3.6175746718988146E-020   4.0989790810293935E-007
 chl          40   6.2033366504899325E-006   9.2759414799409543E-006  0.66875547499998023     
 chl2c          41  0.44304987499999438        2.5582381488167241E-002  0.44304987499999998        1.1399069153941708E-019   1.9870810717495751E-006
 chl          41   4.1017834657440540E-006   9.2580625730773671E-006  0.44304987499999438     
 chl2c          42  0.76234377499999351        3.7949995630725070E-002  0.76234377499999995        3.6175746718988146E-020   1.6275442289360146E-006
 chl          42   7.0714562438282057E-006   9.2759414790633875E-006  0.76234377499999351     
 chl2c          43  0.29539924999999978        2.1185090152268007E-002  0.29539925000000000        3.6175746718988146E-020   8.5960758554420148E-006
 chl          43   2.7348247405401224E-006   9.2580625730773671E-006  0.29539924999999978     
 chl2c          44  0.62416293182304627        3.7536352708156646E-002  0.62417262500000004        3.6175746718988146E-020   7.2698266970179277E-016
 chl          44   5.7896988289912083E-006   9.2759414790633875E-006  0.62416293182304627     
 chl2c          45  0.37544252157420621        4.6544927192009838E-002  0.37662252499999999        1.2168981158232522E-020   7.2910605276220610E-019
 chl          45   3.4758703573279504E-006   9.2580625730773671E-006  0.37544252157420621     
 chl2c          46  0.51876034999995413        3.7083195475449568E-002  0.51876034999999998        3.6175746718988146E-020   1.0628627302941722E-007
 chl          46   4.8119906482580153E-006   9.2759414790633875E-006  0.51876034999995413     
 chl2c          47  0.61961382164006662        3.7519784612651236E-002  0.61962282499999999        3.6175746718988146E-020   7.7131433078798972E-016
 chl          47   5.7475015491520772E-006   9.2759414790633875E-006  0.61961382164006662     
 chl2c          48  0.71423743193812450        3.7823212136301673E-002  0.71424949999999998        3.6175746718988146E-020   7.6461450513098472E-016
 chl          48   6.6252246208145624E-006   9.2759414790633875E-006  0.71423743193812450     
 chl2c          49  0.53275437207679710        3.7152990741888416E-002  0.53276120000000005        3.6175746718988146E-020   7.5189724206732838E-016
 chl          49   4.9417983780995320E-006   9.2759414790633875E-006  0.53275437207679710     
 chl2c          50  0.38132569999999966        2.1533072915600981E-002  0.38132569999999999        3.6175746718988146E-020   7.7785866407061233E-006
 chl          50   3.5303371913225250E-006   9.2580625730773671E-006  0.38132569999999966     
 chl2c          51  0.22275739711963352        2.0700971146093840E-002  0.22275920000000002        3.6175746718988146E-020   4.9783839007672522E-016
 chl          51   2.0623019211494113E-006   9.2580625730773671E-006  0.22275739711963352     
 chl2c          52  0.63697722600311835        3.7581825176985564E-002  0.63698869999999996        3.6175746718988146E-020   6.3962939556269686E-016
 chl          52   5.9085634724600491E-006   9.2759414799409543E-006  0.63697722600311835     
 chl2c          53  0.75269794999999540        3.7925801262726190E-002  0.75269794999999995        3.6175746718988146E-020   2.2845458023495305E-006
 chl          53   6.9819821362714798E-006   9.2759414799409543E-006  0.75269794999999540     
 chl2c          54  0.51860455536689010        3.7082433371327092E-002  0.51861124999999997        3.6175746718988146E-020   7.2667294029742422E-016
 chl          54   4.8105455063589612E-006   9.2759414790633875E-006  0.51860455536689010     
 chl2c          55  0.57808279999999945        3.7357235588660491E-002  0.57808280000000001        3.6175746718988146E-020   1.2397707172006819E-005
 chl          55   5.3622622228530993E-006   9.2759414790633875E-006  0.57808279999999945     
 chl2c          56  0.61625006058530807        3.7507394187257688E-002  0.61626080000000005        3.6175746718988146E-020   6.3962939556269686E-016
 chl          56   5.7162994989993857E-006   9.2759414799409543E-006  0.61625006058530807     
 chl2c          57  0.68162385590965602        3.7727617852646313E-002  0.68163462500000005        3.6175746718988146E-020   7.8037781265514850E-016
 chl          57   6.3227029981515042E-006   9.2759414790633875E-006  0.68162385590965602     
 chl2c          58  0.69416802499999919        3.7765358178394853E-002  0.69416802499999997        3.6175746718988146E-020   1.1249644214715729E-005
 chl          58   6.4390619771461821E-006   9.2759414799409543E-006  0.69416802499999919     
 chl2c          59  0.53705127499999961        3.7173699120809672E-002  0.53705127500000005        3.6175746718988146E-020   1.2423159669816625E-005
 chl          59   4.9816561981563748E-006   9.2759414790633875E-006  0.53705127499999961     
 chl2c          60  0.64452154999999944        3.7607757740906807E-002  0.64452155000000000        3.6175746718988146E-020   1.2676907347966999E-005
 chl          60   5.9785441797952215E-006   9.2759414790633875E-006  0.64452154999999944     
 chl2c          61  0.70792946064820739        3.7805373434125003E-002  0.70794139999999994        3.6175746718988146E-020   7.5926618109126620E-016
 chl          61   6.5667122482776791E-006   9.2759414790633875E-006  0.70792946064820739     
 chl2c          62  0.76480126104687873        3.7956103087269030E-002  0.76481592499999995        3.6175746718988146E-020   7.2150934873662031E-016
 chl          62   7.0942517405847279E-006   9.2759414790633875E-006  0.76480126104687873     
 chl2c          63  0.72597904999999918        3.7855601011927406E-002  0.72597904999999996        3.6175746718988146E-020   1.1230192272863163E-005
 chl          63   6.7341391834631203E-006   9.2759414799409543E-006  0.72597904999999918     
 chl2c          64  0.48432774129260264        2.5708982294816416E-002  0.48435739999999999        1.1399069153941708E-019   4.5080887545924132E-016
 chl          64   4.4839365347641424E-006   9.2580625730773671E-006  0.48432774129260264     
 chl2c          65  0.76379974999999900        3.7953597170552002E-002  0.76379975000000000        3.6175746718988146E-020   1.0068490062956011E-005
 chl          65   7.0849617833935212E-006   9.2759414799409543E-006  0.76379974999999900     
 chl2c          66  0.34931010092040748        3.1840477731474713E-002  0.35213202499999996        2.7516158257833041E-020   5.9969322984370619E-019
 chl          66   3.2339347717291023E-006   9.2580625730773671E-006  0.34931010092040748     
 chl2c          67  0.75735378249629459        3.7937587124568600E-002  0.75736760000000003        3.6175746718988146E-020   7.5086772970354156E-016
 chl          67   7.0251693653829299E-006   9.2759414790633875E-006  0.75735378249629459     
 chl2c          68  0.72590779999999921        3.7855407263856986E-002  0.72590779999999999        3.6175746718988146E-020   1.1246786167356145E-005
 chl          68   6.7334782726326751E-006   9.2759414799409543E-006  0.72590779999999921     
 chl2c          69  0.45523414826654185        2.1732330561541505E-002  0.45524217500000003        3.6175746718988146E-020   4.6700979414973762E-016
 chl          69   4.2145862300532238E-006   9.2580625730773671E-006  0.45523414826654185     
 chl2c          70  0.48662625468958548        3.2658010878182209E-002  0.48694062500000002        2.7516158257833041E-020   1.0370216525625901E-017
 chl          70   4.5052163156184658E-006   9.2580625730773671E-006  0.48662625468958548     
 chl2c          71  0.23986107499996395        4.3481058864416305E-002  0.23986107500000001        1.2168981158232522E-020   9.7098906602897675E-009
 chl          71   2.2206488411952695E-006   9.2580625730773671E-006  0.23986107499996395     
 chl2c          72  0.62789407590600899        3.7549776402781669E-002  0.62790522500000001        3.6175746718988146E-020   6.3962939556269686E-016
 chl          72   5.8243087037057430E-006   9.2759414799409543E-006  0.62789407590600899     
 chl2c          73  0.35135198533442302        3.1852614277819484E-002  0.35362212500000001        2.7516158257833041E-020   7.5298628740846555E-019
 chl          73   3.2528386654010497E-006   9.2580625730773671E-006  0.35135198533442302     
 chl2c          74  0.64719589999999949        3.7616827685877569E-002  0.64719590000000005        3.6175746718988146E-020   1.3316490425029554E-005
 chl          74   6.0033512938897558E-006   9.2759414790633875E-006  0.64719589999999949     
 chl2c          75  0.71552764659505175        3.7826830779512356E-002  0.71554212500000003        3.6175746718988146E-020   6.3962939556269686E-016
 chl          75   6.6371925770955727E-006   9.2759414799409543E-006  0.71552764659505175     
 chl2c          76  0.55513977499999922        3.7257729557919804E-002  0.55513977500000000        3.6175746718988146E-020   7.8566150218564211E-006
 chl          76   5.1494440660875813E-006   9.2759414799409543E-006  0.55513977499999922     
 chl2c          77  0.52973029999999965        3.7138172437479272E-002  0.52973029999999999        3.6175746718988146E-020   1.2489922943389295E-005
 chl          77   4.9137472624866888E-006   9.2759414790633875E-006  0.52973029999999965     
 chl2c          78  0.45105921533853471        4.7515248899399322E-002  0.45117492500000000        1.2168981158232522E-020   1.0701215623307118E-017
 chl          78   4.1759344397673333E-006   9.2580625730773671E-006  0.45105921533853471     
 prod   2.7240666448632434E-009   1.1544116153952759E-013   10.000000000000000     
 dcdom   1.2357331155823135E-012  -5.4248856065053366E-011
 chl2c           1  0.60826437499999986        3.7477407714772232E-002  0.60826437499999997        8.4331205047115953E-021   1.0927133803344881E-005
 chl           1   3.0433766345720862E-006   5.0033780698928602E-006  0.60826437499999986     
 chl2c           2  0.48119376424308863        3.2640259920490348E-002  0.48302390000000001        6.2796869115064185E-021   3.9876157293661556E-019
 chl           2   2.3989923060083433E-006   4.9855016508410620E-006  0.48119376424308863     
 chl2c           3  0.75128332633305983        3.7922212503796585E-002  0.75128689999999998        8.4331205047115953E-021   6.6596867619718516E-016
 chl           3   3.7589545192509926E-006   5.0033780698928602E-006  0.75128332633305983     
 chl2c           4  0.77318742499999971        3.7976509103863923E-002  0.77318742499999993        8.4331205047115953E-021   1.1020541427588421E-005
 chl           4   3.8685490061619294E-006   5.0033780698928602E-006  0.77318742499999971     
 chl2c           5  0.48489021321412784        2.5710500362372445E-002  0.48489679999999996        2.7436185098777543E-020   4.8968062395395741E-016
 chl           5   2.4174209584557087E-006   4.9855016508410620E-006  0.48489021321412784     
 chl2c           6  0.29222854999991477        3.1261039902252048E-002  0.29222855000000003        6.2796869115064185E-021   3.1452820488582541E-009
 chl           6   1.4569059184474649E-006   4.9855016508410620E-006  0.29222854999991477     
 chl2c           7  0.22770739999997730        4.3064391842467263E-002  0.22770740000000000        2.7279366306999724E-021   3.1123382228840003E-009
 chl           7   1.1352356186086128E-006   4.9855016508410620E-006  0.22770739999997730     
 chl2c           8  0.49578364999995161        4.7969800906495587E-002  0.49578364999999996        2.7279366306999724E-021   6.9386984039123310E-009
 chl           8   2.4717302055347660E-006   4.9855016508410620E-006  0.49578364999995161     
 chl2c           9  0.28700202499999988        2.4803669054600401E-002  0.28700202499999999        2.7436185098777543E-020   8.2716752445851214E-006
 chl           9   1.4308490694322271E-006   4.9855016508410620E-006  0.28700202499999988     
 chl2c          10  0.39094243939185813        2.5387016219684602E-002  0.39094662499999999        2.7436185098777543E-020   5.0091662778226792E-016
 chl          10   1.9490441769719407E-006   4.9855016508410620E-006  0.39094243939185813     
 chl2c          11  0.49737367519084802        2.1820572217820047E-002  0.49737575000000001        8.4331205047115953E-021   5.0274476601621988E-016
 chl          11   2.4796572787488588E-006   4.9855016508410620E-006  0.49737367519084802     
 chl2c          12  0.30737432721101515        4.5290941298723353E-002  0.30768942500000002        2.7279366306999724E-021   4.0939175083576071E-019
 chl          12   1.5324152157366768E-006   4.9855016508410620E-006  0.30737432721101515     
 chl2c          13  0.75665973961683874        3.7935816987997487E-002  0.75666275000000005        8.4331205047115953E-021   8.0193564096761902E-016
 chl          13   3.7858547473766632E-006   5.0033780696377000E-006  0.75665973961683874     
 chl2c          14  0.39800663594604369        4.6856526101924839E-002  0.39804095000000000        2.7279366306999724E-021   6.2972410706101661E-018
 chl          14   1.9842627405546983E-006   4.9855016508410620E-006  0.39800663594604369     
 chl2c          15  0.25607208069005749        2.0954299823745293E-002  0.25607262500000000        8.4331205047115953E-021   5.0796925468121725E-016
 chl          15   1.2766477810145872E-006   4.9855016508410620E-006  0.25607208069005749     
 chl2c          16  0.71433214999999917        3.7823443882273475E-002  0.71433214999999994        8.4331205047115953E-021   2.6174144721302238E-006
 chl          16   3.5740738139294128E-006   5.0033780698928602E-006  0.71433214999999917     
 chl2c          17  0.62580612037594319        3.7542254757581245E-002  0.62580860000000005        8.4331205047115953E-021   6.6596867619718516E-016
 chl          17   3.1311446186937257E-006   5.0033780698928602E-006  0.62580612037594319     
 chl2c          18  0.47925326000301388        2.5694475239060960E-002  0.47925950000000000        2.7436185098777543E-020   5.0494625396605296E-016
 chl          18   2.3893179189159862E-006   4.9855016508410620E-006  0.47925326000301388     
 chl2c          19  0.63367129999999994        3.7570220750293731E-002  0.63367130000000005        8.4331205047115953E-021   1.1167208027706025E-005
 chl          19   3.1704970859404991E-006   5.0033780698928602E-006  0.63367129999999994     
 chl2c          20  0.50678069725820096        3.7020645196759419E-002  0.50678202500000002        8.4331205047115953E-021   8.1561640074218429E-016
 chl          20   2.5356154267773850E-006   5.0033780696377000E-006  0.50678069725820096     
 chl2c          21  0.71973184999999995        3.7838475073783531E-002  0.71973185000000006        8.4331205047115953E-021   1.3536082194047489E-005
 chl          21   3.6010905543097705E-006   5.0033780696377000E-006  0.71973184999999995     
 chl2c          22  0.64616892499999989        3.7613353106285476E-002  0.64616892500000001        8.4331205047115953E-021   9.3235112233560032E-006
 chl          22   3.2330274287912437E-006   5.0033780698928602E-006  0.64616892499999989     
 chl2c          23  0.41564179999982542        3.2286562315070731E-002  0.41564179999999995        6.2796869115064185E-021   3.1089088763340569E-009
 chl          23   2.0721828800576804E-006   4.9855016508410620E-006  0.41564179999982542     
 chl2c          24  0.57597314288834867        3.7348402796863071E-002  0.57597492500000003        8.4331205047115953E-021   7.8492689641138544E-016
 chl          24   2.8818113918278650E-006   5.0033780696377000E-006  0.57597314288834867     
 chl2c          25  0.31406487499993480        4.5426679235459781E-002  0.31406487500000002        2.7279366306999724E-021   2.0639619557954306E-009
 chl          25   1.5657709527833668E-006   4.9855016508410620E-006  0.31406487499993480     
 chl2c          26  0.49343188940007932        4.7955660680174553E-002  0.49427735000000000        2.7279366306999724E-021   3.9346746889006326E-019
 chl          26   2.4600054991817198E-006   4.9855016508410620E-006  0.49343188940007932     
 chl2c          27  0.30962635322625115        4.5333133499525620E-002  0.30964730000000001        2.7279366306999724E-021   6.2429859169851953E-018
 chl          27   1.5436426951533728E-006   4.9855016508410620E-006  0.30962635322625115     
 chl2c          28  0.28772152456982231        3.1209236063453518E-002  0.28776342500000002        6.2796869115064185E-021   6.2043667370773001E-018
 chl          28   1.4344361357253563E-006   4.9855016508410620E-006  0.28772152456982231     
 chl2c          29  0.68676297499999595        3.7743217595736761E-002  0.68676297499999994        8.4331205047115953E-021   4.9476796975809276E-007
 chl          29   3.4361348081541236E-006   5.0033780696377000E-006  0.68676297499999595     
 chl2c          30  0.38929869375326026        2.5380056985171612E-002  0.38930277499999999        2.7436185098777543E-020   5.0941452365213175E-016
 chl          30   1.9408492803771479E-006   4.9855016508410620E-006  0.38929869375326026     
 chl2c          31  0.63559177307904979        3.7576959810037038E-002  0.63559385000000002        8.4331205047115953E-021   8.2015567991613342E-016
 chl          31   3.1801059386658594E-006   5.0033780696377000E-006  0.63559177307904979     
 chl2c          32  0.24722667499999995        2.0893126428578448E-002  0.24722667500000001        8.4331205047115953E-021   3.1551710773140297E-006
 chl          32   1.2325489963444465E-006   4.9855016508410620E-006  0.24722667499999995     
 chl2c          33  0.60343137499999988        3.7458922634011876E-002  0.60343137499999999        8.4331205047115953E-021   1.3251798112680551E-005
 chl          33   3.0191953082063226E-006   5.0033780696377000E-006  0.60343137499999988     
 chl2c          34  0.38240609060083935        2.5350269098008315E-002  0.38241020000000003        2.7436185098777543E-020   4.8816840632510843E-016
 chl          34   1.9064861959821613E-006   4.9855016508410620E-006  0.38240609060083935     
 chl2c          35  0.49573959787099586        2.5740370148566064E-002  0.49574644999999995        2.7436185098777543E-020   4.9201848661609085E-016
 chl          35   2.4715105835731342E-006   4.9855016508410620E-006  0.49573959787099586     
 chl2c          36  0.69587030906435410        3.7770393924465726E-002  0.69587337500000002        8.4331205047115953E-021   6.6596867619718516E-016
 chl          36   3.4817022438621561E-006   5.0033780698928602E-006  0.69587030906435410     
 chl2c          37  0.33193964504654788        2.1353674699533250E-002  0.33194060000000003        8.4331205047115953E-021   4.8651429723541162E-016
 chl          37   1.6548856483591607E-006   4.9855016508410620E-006  0.33193964504654788     
 chl2c          38  0.38455600321504174        2.1543295686358745E-002  0.38455722500000000        8.4331205047115953E-021   5.1036878820444497E-016
 chl          38   1.9172045888694312E-006   4.9855016508410620E-006  0.38455600321504174     
 chl2c          39  0.47090508423835697        2.5670077108751441E-002  0.47091117500000002        2.7436185098777543E-020   4.9945285555355715E-016
 chl          39   2.3476980748597782E-006   4.9855016508410620E-006  0.47090508423835697     
 chl2c          40  0.66875547499999921        3.7687445774703773E-002  0.66875547499999999        8.4331205047115953E-021   2.5909845139820296E-006
 chl          40   3.3460364777357789E-006   5.0033780698928602E-006  0.66875547499999921     
 chl2c          41  0.44304987499999937        2.5582381488167241E-002  0.44304987499999998        2.7436185098777543E-020   4.5249172059571567E-006
 chl          41   2.2088258832174231E-006   4.9855016508410620E-006  0.44304987499999937     
 chl2c          42  0.76234377499999939        3.7949995630725070E-002  0.76234377499999995        8.4331205047115953E-021   4.6421886978804977E-006
 chl          42   3.8142941253598139E-006   5.0033780696377000E-006  0.76234377499999939     
 chl2c          43  0.29539924999999995        2.1185090152268007E-002  0.29539925000000000        8.4331205047115953E-021   8.5595411774955343E-006
 chl          43   1.4727134485322113E-006   4.9855016508410620E-006  0.29539924999999995     
 chl2c          44  0.62417053663235345        3.7536352708156646E-002  0.62417262500000004        8.4331205047115953E-021   7.8660976945356051E-016
 chl          44   3.1229611747003120E-006   5.0033780696377000E-006  0.62417053663235345     
 chl2c          45  0.37625365802607225        4.6544927192009838E-002  0.37662252499999999        2.7279366306999724E-021   5.2398822851533706E-019
 chl          45   1.8758132332239715E-006   4.9855016508410620E-006  0.37625365802607225     
 chl2c          46  0.51875896624713203        3.7083195475449568E-002  0.51876034999999998        8.4331205047115953E-021   8.2003458144311423E-016
 chl          46   2.5955472351488240E-006   5.0033780696377000E-006  0.51875896624713203     
 chl2c          47  0.61962085554566804        3.7519784612651236E-002  0.61962282499999999        8.4331205047115953E-021   8.2198866787493831E-016
 chl          47   3.1001974001273445E-006   5.0033780696377000E-006  0.61962085554566804     
 chl2c          48  0.71424949999999854        3.7823212136301673E-002  0.71424949999999998        8.4331205047115953E-021   1.5732664002276747E-006
 chl          48   3.5736602845496851E-006   5.0033780696377000E-006  0.71424949999999854     
 chl2c          49  0.53275971628458696        3.7152990741888416E-002  0.53276120000000005        8.4331205047115953E-021   8.0662498443162007E-016
 chl          49   2.6655982808447054E-006   5.0033780696377000E-006  0.53275971628458696     
 chl2c          50  0.38132569999999988        2.1533072915600981E-002  0.38132569999999999        8.4331205047115953E-021   6.4753627665028264E-006
 chl          50   1.9010999068581229E-006   4.9855016508410620E-006  0.38132569999999988     
 chl2c          51  0.22275879222584424        2.0700971146093840E-002  0.22275920000000002        8.4331205047115953E-021   5.1310839154177437E-016
 chl          51   1.1105643263813075E-006   4.9855016508410620E-006  0.22275879222584424     
 chl2c          52  0.63698869999999741        3.7581825176985564E-002  0.63698869999999996        8.4331205047115953E-021   6.8323981668528014E-007
 chl          52   3.1870952923495491E-006   5.0033780698928602E-006  0.63698869999999741     
 chl2c          53  0.75269794999999939        3.7925801262726190E-002  0.75269794999999995        8.4331205047115953E-021   4.8409302519970089E-006
 chl          53   3.7660324162833095E-006   5.0033780698928602E-006  0.75269794999999939     
 chl2c          54  0.51860980781747268        3.7082433371327092E-002  0.51861124999999997        8.4331205047115953E-021   7.8635877999454221E-016
 chl          54   2.5948009391329649E-006   5.0033780696377000E-006  0.51860980781747268     
 chl2c          55  0.57808279999999990        3.7357235588660491E-002  0.57808280000000001        8.4331205047115953E-021   1.0876046294156077E-005
 chl          55   2.8923668039547561E-006   5.0033780696377000E-006  0.57808279999999990     
 chl2c          56  0.61625839546058647        3.7507394187257688E-002  0.61626080000000005        8.4331205047115953E-021   6.6596867619718516E-016
 chl          56   3.0833737412348601E-006   5.0033780698928602E-006  0.61625839546058647     
 chl2c          57  0.68163226203144056        3.7727617852646313E-002  0.68163462500000005        8.4331205047115953E-021   8.2909089957937913E-016
 chl          57   3.4104639114056482E-006   5.0033780696377000E-006  0.68163226203144056     
 chl2c          58  0.69416802499999986        3.7765358178394853E-002  0.69416802499999997        8.4331205047115953E-021   1.1176463945094180E-005
 chl          58   3.4731850731058380E-006   5.0033780698928602E-006  0.69416802499999986     
 chl2c          59  0.53705127499999994        3.7173699120809672E-002  0.53705127500000005        8.4331205047115953E-021   1.3501895311168681E-005
 chl          59   2.6870705716059654E-006   5.0033780696377000E-006  0.53705127499999994     
 chl2c          60  0.64452154999999989        3.7607757740906807E-002  0.64452155000000000        8.4331205047115953E-021   1.3120983185375729E-005
 chl          60   3.2247849886788980E-006   5.0033780696377000E-006  0.64452154999999989     
 chl2c          61  0.70793879900888124        3.7805373434125003E-002  0.70794139999999994        8.4331205047115953E-021   8.1247960188967519E-016
 chl          61   3.5420854616066878E-006   5.0033780696377000E-006  0.70793879900888124     
 chl2c          62  0.76481592499999862        3.7956103087269030E-002  0.76481592499999995        8.4331205047115953E-021   1.7603814335168148E-006
 chl          62   3.8266632264546648E-006   5.0033780696377000E-006  0.76481592499999862     
 chl2c          63  0.72597904999999985        3.7855601011927406E-002  0.72597904999999996        8.4331205047115953E-021   1.1020640374970505E-005
 chl          63   3.6323476579716513E-006   5.0033780698928602E-006  0.72597904999999985     
 chl2c          64  0.48435066115114650        2.5708982294816416E-002  0.48435739999999999        2.7436185098777543E-020   4.7756649387315551E-016
 chl          64   2.4147310207550005E-006   4.9855016508410620E-006  0.48435066115114650     
 chl2c          65  0.76379974999999978        3.7953597170552002E-002  0.76379975000000000        8.4331205047115953E-021   1.0773876813115749E-005
 chl          65   3.8215789189396483E-006   5.0033780698928602E-006  0.76379974999999978     
 chl2c          66  0.35123092079799306        3.1840477731474713E-002  0.35213202499999996        6.2796869115064185E-021   4.3095432881117926E-019
 chl          66   1.7510623354648207E-006   4.9855016508410620E-006  0.35123092079799306     
 chl2c          67  0.75736459848688542        3.7937587124568600E-002  0.75736760000000003        8.4331205047115953E-021   8.0580468573359592E-016
 chl          67   3.7893814227892444E-006   5.0033780696377000E-006  0.75736459848688542     
 chl2c          68  0.72590779999999988        3.7855407263856986E-002  0.72590779999999999        8.4331205047115953E-021   1.1176813605681624E-005
 chl          68   3.6319911672841719E-006   5.0033780698928602E-006  0.72590779999999988     
 chl2c          69  0.45524039172451219        2.1732330561541505E-002  0.45524217500000003        8.4331205047115953E-021   4.9003054143778212E-016
 chl          69   2.2696017244720872E-006   4.9855016508410620E-006  0.45524039172451219     
 chl2c          70  0.48684348443873232        3.2658010878182209E-002  0.48694062500000002        6.2796869115064185E-021   7.6625400651743425E-018
 chl          70   2.4271589953705149E-006   4.9855016508410620E-006  0.48684348443873232     
 chl2c          71  0.23986107499998979        4.3481058864416305E-002  0.23986107500000001        2.7279366306999724E-021   7.6872976366552881E-009
 chl          71   1.1958277853849610E-006   4.9855016508410620E-006  0.23986107499998979     
 chl2c          72  0.62790272873334618        3.7549776402781669E-002  0.62790522500000001        8.4331205047115953E-021   6.6596867619718516E-016
 chl          72   3.1416347429703099E-006   5.0033780698928602E-006  0.62790272873334618     
 chl2c          73  0.35289806674477553        3.1852614277819484E-002  0.35362212500000001        6.2796869115064185E-021   5.4115689369560047E-019
 chl          73   1.7593738943346977E-006   4.9855016508410620E-006  0.35289806674477553     
 chl2c          74  0.64719589999999994        3.7616827685877569E-002  0.64719590000000005        8.4331205047115953E-021   1.3612810448178599E-005
 chl          74   3.2381657728194338E-006   5.0033780696377000E-006  0.64719589999999994     
 chl2c          75  0.71553888329901361        3.7826830779512356E-002  0.71554212500000003        8.4331205047115953E-021   6.6596867619718516E-016
 chl          75   3.5801115568539111E-006   5.0033780698928602E-006  0.71553888329901361     
 chl2c          76  0.55513977499999978        3.7257729557919804E-002  0.55513977500000000        8.4331205047115953E-021   5.3781349679483234E-006
 chl          76   2.7775741759602557E-006   5.0033780698928602E-006  0.55513977499999978     
 chl2c          77  0.52973029999999988        3.7138172437479272E-002  0.52973029999999999        8.4331205047115953E-021   1.3046770974732012E-005
 chl          77   2.6504409658425991E-006   5.0033780696377000E-006  0.52973029999999988     
 chl2c          78  0.45113981889097632        4.7515248899399322E-002  0.45117492500000000        2.7279366306999724E-021   7.9082010226949908E-018
 chl          78   2.2491583118411000E-006   4.9855016508410620E-006  0.45113981889097632     
 prod   1.9569815983595103E-009   2.5978327580173336E-014   10.000000000000000     
 dcdom   1.2370886147409346E-012  -3.3229578339553945E-011
 chl2c           1  0.60826437499999997        3.7477407714772232E-002  0.60826437499999997        1.9481053471808534E-021   1.1274907351505333E-005
 chl           1   4.4225104575152475E-007   7.2707043832959112E-007  0.60826437499999997     
 chl2c           2  0.48234202537290821        3.2640259920490348E-002  0.48302390000000001        1.4197428427282703E-021   2.4254866283444074E-019
 chl           2   3.4422808998269592E-007   7.1365975153536818E-007  0.48234202537290821     
 chl2c           3  0.75128611542599755        3.7922212503796585E-002  0.75128689999999998        1.9481053471808534E-021   7.0074451713852382E-016
 chl           3   5.4623792525371579E-007   7.2707043832959112E-007  0.75128611542599755     
 chl2c           4  0.77318742499999993        3.7976509103863923E-002  0.77318742499999993        1.9481053471808534E-021   1.0884887487978123E-005
 chl           4   5.6216172000567781E-007   7.2707043832959112E-007  0.77318742499999993     
 chl2c           5  0.48489528992873399        2.5710500362372445E-002  0.48489679999999996        6.5271952602083556E-021   5.0815528757782410E-016
 chl           5   3.4605025213121061E-007   7.1365975153536818E-007  0.48489528992873399     
 chl2c           6  0.29222854999999687        3.1261039902252048E-002  0.29222855000000003        1.4197428427282703E-021   1.9262152561138158E-008
 chl           6   2.0855175438453867E-007   7.1365975153536818E-007  0.29222854999999687     
 chl2c           7  0.22770739999998205        4.3064391842467263E-002  0.22770740000000000        6.0557341677131859E-022   8.7584319653534411E-010
 chl           7   1.6250560650675187E-007   7.1365975153536818E-007  0.22770739999998205     
 chl2c           8  0.49578364999998170        4.7969800906495587E-002  0.49578364999999996        6.0557341677131859E-022   4.0702733622356296E-009
 chl           8   3.5382083647428487E-007   7.1365975153536818E-007  0.49578364999998170     
 chl2c           9  0.28700202499999994        2.4803669054600401E-002  0.28700202499999999        6.5271952602083556E-021   7.8489566409224451E-006
 chl           9   2.0482179385164747E-007   7.1365975153536818E-007  0.28700202499999994     
 chl2c          10  0.39094565879130994        2.5387016219684602E-002  0.39094662499999999        6.5271952602083556E-021   5.1624936810042410E-016
 chl          10   2.7900218171683707E-007   7.1365975153536818E-007  0.39094565879130994     
 chl2c          11  0.49737528442014567        2.1820572217820047E-002  0.49737575000000001        1.9481053471808534E-021   5.1755566922460570E-016
 chl          11   3.5495672189911421E-007   7.1365975153536818E-007  0.49737528442014567     
 chl2c          12  0.30757435250228232        4.5290941298723353E-002  0.30768942500000002        6.0557341677131859E-022   2.4901640302028368E-019
 chl          12   2.1950343598543055E-007   7.1365975153536818E-007  0.30757435250228232     
 chl2c          13  0.75666274999999972        3.7935816987997487E-002  0.75666275000000005        1.9481053471808534E-021   1.3759605668591296E-006
 chl          13   5.5014711730598669E-007   7.2707043832405767E-007  0.75666274999999972     
 chl2c          14  0.39802910328100266        4.6856526101924839E-002  0.39804095000000000        6.0557341677131859E-022   4.0493125721443402E-018
 chl          14   2.8405735095136574E-007   7.1365975153536818E-007  0.39802910328100266     
 chl2c          15  0.25607250246963953        2.0954299823745293E-002  0.25607262500000000        1.9481053471808534E-021   5.2127252003920661E-016
 chl          15   1.8274863848752289E-007   7.1365975153536818E-007  0.25607250246963953     
 chl2c          16  0.71433214999999983        3.7823443882273475E-002  0.71433214999999994        1.9481053471808534E-021   4.6669010460362775E-006
 chl          16   5.1936978941341915E-007   7.2707043832959112E-007  0.71433214999999983     
 chl2c          17  0.62580805561592701        3.7542254757581245E-002  0.62580860000000005        1.9481053471808534E-021   7.0074451713852382E-016
 chl          17   4.5500653730686117E-007   7.2707043832959112E-007  0.62580805561592701     
 chl2c          18  0.47925805600739030        2.5694475239060960E-002  0.47925950000000000        6.5271952602083556E-021   5.1912481662546817E-016
 chl          18   3.4202718517155774E-007   7.1365975153536818E-007  0.47925805600739030     
 chl2c          19  0.63367130000000005        3.7570220750293731E-002  0.63367130000000005        1.9481053471808534E-021   1.1279091842083855E-005
 chl          19   4.6072366984788187E-007   7.2707043832959112E-007  0.63367130000000005     
 chl2c          20  0.50678173372252100        3.7020645196759419E-002  0.50678202500000002        1.9481053471808534E-021   8.5885073372493228E-016
 chl          20   3.6846601727225923E-007   7.2707043832405767E-007  0.50678173372252100     
 chl2c          21  0.71973185000000006        3.7838475073783531E-002  0.71973185000000006        1.9481053471808534E-021   1.3796117633804964E-005
 chl          21   5.2329575165528499E-007   7.2707043832405767E-007  0.71973185000000006     
 chl2c          22  0.64616892500000001        3.7613353106285476E-002  0.64616892500000001        1.9481053471808534E-021   8.0881489881075630E-006
 chl          22   4.6981032353471067E-007   7.2707043832959112E-007  0.64616892500000001     
 chl2c          23  0.41564179999996120        3.2286562315070731E-002  0.41564179999999995        1.4197428427282703E-021   3.1661151442779751E-009
 chl          23   2.9662682371568550E-007   7.1365975153536818E-007  0.41564179999996120     
 chl2c          24  0.57597453831780510        3.7348402796863071E-002  0.57597492500000003        1.9481053471808534E-021   8.3567061245348119E-016
 chl          24   4.1877406003822331E-007   7.2707043832405767E-007  0.57597453831780510     
 chl2c          25  0.31406487499998670        4.5426679235459781E-002  0.31406487500000002        6.0557341677131859E-022   2.2409328982126444E-009
 chl          25   2.2413546065847697E-007   7.1365975153536818E-007  0.31406487499998670     
 chl2c          26  0.49396845281568846        4.7955660680174553E-002  0.49427735000000000        6.0557341677131859E-022   2.3932759711255891E-019
 chl          26   3.5252540330275445E-007   7.1365975153536818E-007  0.49396845281568846     
 chl2c          27  0.30964006811986161        4.5333133499525620E-002  0.30964730000000001        6.0557341677131859E-022   4.0143019748069736E-018
 chl          27   2.2097765407981491E-007   7.1365975153536818E-007  0.30964006811986161     
 chl2c          28  0.28774869092201644        3.1209236063453518E-002  0.28776342500000002        1.4197428427282703E-021   3.9893825031930961E-018
 chl          28   2.0535465926803371E-007   7.1365975153536818E-007  0.28774869092201644     
 chl2c          29  0.68676243765071865        3.7743217595736761E-002  0.68676297499999994        1.9481053471808534E-021   8.5494696932057301E-016
 chl          29   4.9932466656720633E-007   7.2707043832405767E-007  0.68676243765071865     
 chl2c          30  0.38930182799239060        2.5380056985171612E-002  0.38930277499999999        6.5271952602083556E-021   5.2229646067180378E-016
 chl          30   2.7782904583731411E-007   7.1365975153536818E-007  0.38930182799239060     
 chl2c          31  0.63559339363194611        3.7576959810037038E-002  0.63559385000000002        1.9481053471808534E-021   8.6223623055135369E-016
 chl          31   4.6212116730385439E-007   7.2707043832405767E-007  0.63559339363194611     
 chl2c          32  0.24722667499999995        2.0893126428578448E-002  0.24722667500000001        1.9481053471808534E-021   1.0915697743570580E-006
 chl          32   1.7643572745341520E-007   7.1365975153536818E-007  0.24722667499999995     
 chl2c          33  0.60343137499999999        3.7458922634011876E-002  0.60343137499999999        1.9481053471808534E-021   1.3442889835393577E-005
 chl          33   4.3873711431973883E-007   7.2707043832405767E-007  0.60343137499999999     
 chl2c          34  0.38240925876636694        2.5350269098008315E-002  0.38241020000000003        6.5271952602083556E-021   5.0705729827780235E-016
 chl          34   2.7291009659602977E-007   7.1365975153536818E-007  0.38240925876636694     
 chl2c          35  0.49574487683915519        2.5740370148566064E-002  0.49574644999999995        6.5271952602083556E-021   5.0984871414507853E-016
 chl          35   3.5379316562996317E-007   7.1365975153536818E-007  0.49574487683915519     
 chl2c          36  0.69587270189509620        3.7770393924465726E-002  0.69587337500000002        1.9481053471808534E-021   7.0074451713852382E-016
 chl          36   5.0594847038846451E-007   7.2707043832959112E-007  0.69587270189509620     
 chl2c          37  0.33194038783302177        2.1353674699533250E-002  0.33194060000000003        1.9481053471808534E-021   5.0585392410255822E-016
 chl          37   2.3689249470546806E-007   7.1365975153536818E-007  0.33194038783302177     
 chl2c          38  0.38455694956061431        2.1543295686358745E-002  0.38455722500000000        1.9481053471808534E-021   5.2297152279399842E-016
 chl          38   2.7444281707462711E-007   7.1365975153536818E-007  0.38455694956061431     
 chl2c          39  0.47090977025864683        2.5670077108751441E-002  0.47091117500000002        6.5271952602083556E-021   5.1520128711603175E-016
 chl          39   3.3606934963836319E-007   7.1365975153536818E-007  0.47090977025864683     
 chl2c          40  0.66875547499999988        3.7687445774703773E-002  0.66875547499999999        1.9481053471808534E-021   4.6386658476999563E-006
 chl          40   4.8623233634356385E-007   7.2707043832959112E-007  0.66875547499999988     
 chl2c          41  0.44304987499999987        2.5582381488167241E-002  0.44304987499999998        6.5271952602083556E-021   6.1796400903942011E-006
 chl          41   3.1618686371027586E-007   7.1365975153536818E-007  0.44304987499999987     
 chl2c          42  0.76234377499999995        3.7949995630725070E-002  0.76234377499999995        1.9481053471808534E-021   7.1863629807151341E-006
 chl          42   5.5427762264286673E-007   7.2707043832405767E-007  0.76234377499999995     
 chl2c          43  0.29539925000000000        2.1185090152268007E-002  0.29539925000000000        1.9481053471808534E-021   8.4656095632132439E-006
 chl          43   2.1081455535873410E-007   7.1365975153536818E-007  0.29539925000000000     
 chl2c          44  0.62417217159171479        3.7536352708156646E-002  0.62417262500000004        1.9481053471808534E-021   8.3695500407769026E-016
 chl          44   4.5381713438886701E-007   7.2707043832405767E-007  0.62417217159171479     
 chl2c          45  0.37648783100317118        4.6544927192009838E-002  0.37662252499999999        6.0557341677131859E-022   3.1874677594191181E-019
 chl          45   2.6868421192981281E-007   7.1365975153536818E-007  0.37648783100317118     
 chl2c          46  0.51876004595708192        3.7083195475449568E-002  0.51876034999999998        1.9481053471808534E-021   8.6214605498608207E-016
 chl          46   3.7717509399902383E-007   7.2707043832405767E-007  0.51876004595708192     
 chl2c          47  0.61962239196378688        3.7519784612651236E-002  0.61962282499999999        1.9481053471808534E-021   8.6360020743364263E-016
 chl          47   4.5050912412051159E-007   7.2707043832405767E-007  0.61962239196378688     
 chl2c          48  0.71424949999999987        3.7823212136301673E-002  0.71424949999999998        1.9481053471808534E-021   3.8796229326459328E-006
 chl          48   5.1930969703773889E-007   7.2707043832405767E-007  0.71424949999999987     
 chl2c          49  0.53276087554791529        3.7152990741888416E-002  0.53276120000000005        1.9481053471808534E-021   8.5211220568998533E-016
 chl          49   3.8735468330653151E-007   7.2707043832405767E-007  0.53276087554791529     
 chl2c          50  0.38132569999999999        2.1533072915600981E-002  0.38132569999999999        1.9481053471808534E-021   4.8152870212396270E-006
 chl          50   2.7213680431605033E-007   7.1365975153536818E-007  0.38132569999999999     
 chl2c          51  0.22275910791841549        2.0700971146093840E-002  0.22275920000000002        1.9481053471808534E-021   5.2490508306897054E-016
 chl          51   1.5897420960929666E-007   7.1365975153536818E-007  0.22275910791841549     
 chl2c          52  0.63698869999999985        3.7581825176985564E-002  0.63698869999999996        1.9481053471808534E-021   2.4243548567225028E-006
 chl          52   4.6313565331999630E-007   7.2707043832959112E-007  0.63698869999999985     
 chl2c          53  0.75269794999999995        3.7925801262726190E-002  0.75269794999999995        1.9481053471808534E-021   6.8612857748140589E-006
 chl          53   5.4726442843628461E-007   7.2707043832959112E-007  0.75269794999999995     
 chl2c          54  0.51861093691425331        3.7082433371327092E-002  0.51861124999999997        1.9481053471808534E-021   8.3676354440917155E-016
 chl          54   3.7706668122189638E-007   7.2707043832405767E-007  0.51861093691425331     
 chl2c          55  0.57808280000000001        3.7357235588660491E-002  0.57808280000000001        1.9481053471808534E-021   9.0498109488205018E-006
 chl          55   4.2030691478359856E-007   7.2707043832405767E-007  0.57808280000000001     
 chl2c          56  0.61626027210025891        3.7507394187257688E-002  0.61626080000000005        1.9481053471808534E-021   7.0074451713852382E-016
 chl          56   4.4806462616104834E-007   7.2707043832959112E-007  0.61626027210025891     
 chl2c          57  0.68163410412752223        3.7727617852646313E-002  0.68163462500000005        1.9481053471808534E-021   8.6886836829472811E-016
 chl          57   4.9559600686462400E-007   7.2707043832405767E-007  0.68163410412752223     
 chl2c          58  0.69416802499999997        3.7765358178394853E-002  0.69416802499999997        1.9481053471808534E-021   1.1334159654469660E-005
 chl          58   5.0470905021113653E-007   7.2707043832959112E-007  0.69416802499999997     
 chl2c          59  0.53705127500000005        3.7173699120809672E-002  0.53705127500000005        1.9481053471808534E-021   1.3954892432564191E-005
 chl          59   3.9047410591674407E-007   7.2707043832405767E-007  0.53705127500000005     
 chl2c          60  0.64452155000000000        3.7607757740906807E-002  0.64452155000000000        1.9481053471808534E-021   1.3491034774064235E-005
 chl          60   4.6861256586780103E-007   7.2707043832405767E-007  0.64452155000000000     
 chl2c          61  0.70794083003668218        3.7805373434125003E-002  0.70794139999999994        1.9481053471808534E-021   8.5650481343354395E-016
 chl          61   5.1472284960226775E-007   7.2707043832405767E-007  0.70794083003668218     
 chl2c          62  0.76481592499999973        3.7956103087269030E-002  0.76481592499999995        1.9481053471808534E-021   4.0656016219345572E-006
 chl          62   5.5607504982696946E-007   7.2707043832405767E-007  0.76481592499999973     
 chl2c          63  0.72597904999999996        3.7855601011927406E-002  0.72597904999999996        1.9481053471808534E-021   1.0885108341692932E-005
 chl          63   5.2783790610160014E-007   7.2707043832959112E-007  0.72597904999999996     
 chl2c          64  0.48435586656846480        2.5708982294816416E-002  0.48435739999999999        6.5271952602083556E-021   4.9930132937541495E-016
 chl          64   3.4566528738994851E-007   7.1365975153536818E-007  0.48435586656846480     
 chl2c          65  0.76379975000000000        3.7953597170552002E-002  0.76379975000000000        1.9481053471808534E-021   1.1209441613942931E-005
 chl          65   5.5533621902853208E-007   7.2707043832959112E-007  0.76379975000000000     
 chl2c          66  0.35179655782943914        3.1840477731474713E-002  0.35213202499999996        1.4197428427282703E-021   2.6213606545162063E-019
 chl          66   2.5106304405155530E-007   7.1365975153536818E-007  0.35179655782943914     
 chl2c          67  0.75736694383468994        3.7937587124568600E-002  0.75736760000000003        1.9481053471808534E-021   8.5149527871075604E-016
 chl          67   5.5065911582603998E-007   7.2707043832405767E-007  0.75736694383468994     
 chl2c          68  0.72590779999999999        3.7855407263856986E-002  0.72590779999999999        1.9481053471808534E-021   1.1344219445183040E-005
 chl          68   5.2778610233286916E-007   7.2707043832959112E-007  0.72590779999999999     
 chl2c          69  0.45524177794217424        2.1732330561541505E-002  0.45524217500000003        1.9481053471808534E-021   5.0840906209920835E-016
 chl          69   3.2488773413473132E-007   7.1365975153536818E-007  0.45524177794217424     
 chl2c          70  0.48690649291513177        3.2658010878182209E-002  0.48694062500000002        1.4197428427282703E-021   4.9310391456941032E-018
 chl          70   3.4748556675477047E-007   7.1365975153536818E-007  0.48690649291513177     
 chl2c          71  0.23986107499999629        4.3481058864416305E-002  0.23986107500000001        6.0557341677131859E-022   4.6894793183564162E-009
 chl          71   1.7117919518750365E-007   7.1365975153536818E-007  0.23986107499999629     
 chl2c          72  0.62790522499999968        3.7549776402781669E-002  0.62790522500000001        1.9481053471808534E-021   1.1440372726585932E-006
 chl          72   4.5653132717019033E-007   7.2707043832959112E-007  0.62790522499999968     
 chl2c          73  0.35335267714008989        3.1852614277819484E-002  0.35362212500000001        1.4197428427282703E-021   3.2919465065531411E-019
 chl          73   2.5217358377215374E-007   7.1365975153536818E-007  0.35335267714008989     
 chl2c          74  0.64719590000000005        3.7616827685877569E-002  0.64719590000000005        1.9481053471808534E-021   1.3850869824695099E-005
 chl          74   4.7055700669453302E-007   7.2707043832405767E-007  0.64719590000000005     
 chl2c          75  0.71554141330696575        3.7826830779512356E-002  0.71554212500000003        1.9481053471808534E-021   7.0074451713852382E-016
 chl          75   5.2024900901607067E-007   7.2707043832959112E-007  0.71554141330696575     
 chl2c          76  0.55513977499999989        3.7257729557919804E-002  0.55513977500000000        1.9481053471808534E-021   3.3561335008315745E-006
 chl          76   4.0362571954344051E-007   7.2707043832959112E-007  0.55513977499999989     
 chl2c          77  0.52973029999999999        3.7138172437479272E-002  0.52973029999999999        1.9481053471808534E-021   1.3444930245902390E-005
 chl          77   3.8515124141453457E-007   7.2707043832405767E-007  0.52973029999999999     
 chl2c          78  0.45116281591208773        4.7515248899399322E-002  0.45117492500000000        6.0557341677131859E-022   5.0898341115502984E-018
 chl          78   3.2197674310581757E-007   7.1365975153536818E-007  0.45116281591208773     
 prod   1.1900060280450112E-009   5.7910015329792659E-015   10.000000000000000     
 dcdom   1.2384737245786928E-012  -1.2213217486506594E-011
 chl2c           1  0.60826437499999997        3.7477407714772232E-002  0.60826437499999997        4.2875731287711365E-022   1.1358606542362521E-005
 chl           1   1.5247041980289562E-009   2.5066472091661726E-009  0.60826437499999997     
 chl2c           2  0.48284951415726091        3.2640259920490348E-002  0.48302390000000001        3.0698566043454829E-022   2.0528503377857896E-019
 chl           2   1.2389892070409754E-010   2.5659945194382957E-010  0.48284951415726091     
 chl2c           3  0.75128673564115522        3.7922212503796585E-002  0.75128689999999998        4.2875731287711365E-022   7.3620710126103795E-016
 chl           3   1.8832107991784657E-009   2.5066472091661726E-009  0.75128673564115522     
 chl2c           4  0.77318742499999993        3.7976509103863923E-002  0.77318742499999993        4.2875731287711365E-022   1.0027447094152371E-005
 chl           4   1.9381081010386293E-009   2.5066472091661726E-009  0.77318742499999993     
 chl2c           5  0.48489646869842551        2.5710500362372445E-002  0.48489679999999996        1.4667040818766350E-021   5.2045998471109802E-016
 chl           5   1.2442416811751429E-010   2.5659945194382957E-010  0.48489646869842551     
 chl2c           6  0.29222854999999970        3.1261039902252048E-002  0.29222855000000003        3.0698566043454829E-022   3.8710769051378336E-008
 chl           6   7.4985685772339922E-011   2.5659945194382957E-010  0.29222854999999970     
 chl2c           7  0.22769069806286404        4.3064391842467263E-002  0.22770740000000000        1.2905939083802304E-022   2.0031579896264621E-019
 chl           7   5.8425308335638891E-011   2.5659945194382957E-010  0.22769069806286404     
 chl2c           8  0.49578364999999514        4.7969800906495587E-002  0.49578364999999996        1.2905939083802304E-022   3.2449423631963470E-009
 chl           8   1.2721781287271016E-010   2.5659945194382957E-010  0.49578364999999514     
 chl2c           9  0.28700202499999999        2.4803669054600401E-002  0.28700202499999999        1.4667040818766350E-021   6.4294245553332643E-006
 chl           9   7.3644562321769265E-011   2.5659945194382957E-010  0.28700202499999999     
 chl2c          10  0.39094641205421643        2.5387016219684602E-002  0.39094662499999999        1.4667040818766350E-021   5.2635428121699868E-016
 chl          10   1.0031663507251850E-010   2.5659945194382957E-010  0.39094641205421643     
 chl2c          11  0.49737564942448387        2.1820572217820047E-002  0.49737575000000001        4.2875731287711365E-022   5.2730076484972848E-016
 chl          11   1.2762631905252887E-010   2.5659945194382957E-010  0.49737564942448387     
 chl2c          12  0.30766044110810559        4.5290941298723353E-002  0.30768942500000002        1.2905939083802304E-022   2.1075949177334070E-019
 chl          12   7.8945500573136744E-011   2.5659945194382957E-010  0.30766044110810559     
 chl2c          13  0.75666275000000005        3.7935816987997487E-002  0.75666275000000005        4.2875731287711365E-022   4.3684111969723048E-006
 chl          13   1.8966865705625521E-009   2.5066472091596317E-009  0.75666275000000005     
 chl2c          14  0.39803804420077626        4.6856526101924839E-002  0.39804095000000000        1.2905939083802304E-022   3.5184092155806508E-018
 chl          14   1.0213634399471300E-010   2.5659945194382957E-010  0.39803804420077626     
 chl2c          15  0.25607259847576808        2.0954299823745293E-002  0.25607262500000000        4.2875731287711365E-022   5.2998672296239620E-016
 chl          15   6.5708088426714412E-011   2.5659945194382957E-010  0.25607259847576808     
 chl2c          16  0.71433214999999994        3.7823443882273475E-002  0.71433214999999994        4.2875731287711365E-022   7.2497682748805851E-006
 chl          16   1.7905786902151716E-009   2.5066472091661726E-009  0.71433214999999994     
 chl2c          17  0.62580848595808081        3.7542254757581245E-002  0.62580860000000005        4.2875731287711365E-022   7.3620710126103795E-016
 chl          17   1.5686810947993312E-009   2.5066472091661726E-009  0.62580848595808081     
 chl2c          18  0.47925918124184469        2.5694475239060960E-002  0.47925950000000000        1.4667040818766350E-021   5.2843597016408790E-016
 chl          18   1.2297764324570582E-010   2.5659945194382957E-010  0.47925918124184469     
 chl2c          19  0.63367130000000005        3.7570220750293731E-002  0.63367130000000005        4.2875731287711365E-022   1.1016126699512712E-005
 chl          19   1.5883903956737007E-009   2.5066472091661726E-009  0.63367130000000005     
 chl2c          20  0.50678202500000002        3.7020645196759419E-002  0.50678202500000002        4.2875731287711365E-022   1.8296142285642061E-006
 chl          20   1.2703237486185167E-009   2.5066472091596317E-009  0.50678202500000002     
 chl2c          21  0.71973185000000006        3.7838475073783531E-002  0.71973185000000006        4.2875731287711365E-022   1.3608912884413903E-005
 chl          21   1.8041138331457989E-009   2.5066472091596317E-009  0.71973185000000006     
 chl2c          22  0.64616892500000001        3.7613353106285476E-002  0.64616892500000001        4.2875731287711365E-022   5.6286702645061857E-006
 chl          22   1.6197175325011560E-009   2.5066472091661726E-009  0.64616892500000001     
 chl2c          23  0.41564179999999273        3.2286562315070731E-002  0.41564179999999995        3.0698566043454829E-022   3.6885101597590927E-009
 chl          23   1.0665345808494495E-010   2.5659945194382957E-010  0.41564179999999273     
 chl2c          24  0.57597484334000293        3.7348402796863071E-002  0.57597492500000003        4.2875731287711365E-022   8.7092203151797663E-016
 chl          24   1.4437657336043745E-009   2.5066472091596317E-009  0.57597484334000293     
 chl2c          25  0.31406487499999763        4.5426679235459781E-002  0.31406487500000002        1.2905939083802304E-022   2.7198775332456304E-009
 chl          25   8.0588874799806737E-011   2.5659945194382957E-010  0.31406487499999763     
 chl2c          26  0.49419953167828468        4.7955660680174553E-002  0.49427735000000000        1.2905939083802304E-022   2.0255865008957439E-019
 chl          26   1.2681132897954507E-010   2.5659945194382957E-010  0.49419953167828468     
 chl2c          27  0.30964552613824392        4.5333133499525620E-002  0.30964730000000001        1.2905939083802304E-022   3.4879636616909920E-018
 chl          27   7.9454872303932138E-011   2.5659945194382957E-010  0.30964552613824392     
 chl2c          28  0.28775975819016153        3.1209236063453518E-002  0.28776342500000002        3.0698566043454829E-022   3.4662937158469914E-018
 chl          28   7.3838996243084370E-011   2.5659945194382957E-010  0.28775975819016153     
 chl2c          29  0.68676286080576610        3.7743217595736761E-002  0.68676297499999994        4.2875731287711365E-022   8.8542349901616419E-016
 chl          29   1.7214722083932581E-009   2.5066472091596317E-009  0.68676286080576610     
 chl2c          30  0.38930256558014997        2.5380056985171612E-002  0.38930277499999999        1.4667040818766350E-021   5.3072485363015959E-016
 chl          30   9.9894824968193255E-011   2.5659945194382957E-010  0.38930256558014997     
 chl2c          31  0.63559375278544694        3.7576959810037038E-002  0.63559385000000002        4.2875731287711365E-022   8.9086022141809640E-016
 chl          31   1.5932093065789375E-009   2.5066472091596317E-009  0.63559375278544694     
 chl2c          32  0.24722665032869889        2.0893126428578448E-002  0.24722667500000001        4.2875731287711365E-022   5.3110464955494030E-016
 chl          32   6.3438222980252928E-011   2.5659945194382957E-010  0.24722665032869889     
 chl2c          33  0.60343137499999999        3.7458922634011876E-002  0.60343137499999999        4.2875731287711365E-022   1.2813461732937972E-005
 chl          33   1.5125895720631090E-009   2.5066472091596317E-009  0.60343137499999999     
 chl2c          34  0.38240999362602557        2.5350269098008315E-002  0.38241020000000003        1.4667040818766350E-021   5.1965639691243885E-016
 chl          34   9.8126194782281522E-011   2.5659945194382957E-010  0.38240999362602557     
 chl2c          35  0.49574610452812012        2.5740370148566064E-002  0.49574644999999995        1.4667040818766350E-021   5.2169746334868796E-016
 chl          35   1.2720817872520407E-010   2.5659945194382957E-010  0.49574610452812012     
 chl2c          36  0.69587323399260326        3.7770393924465726E-002  0.69587337500000002        4.2875731287711365E-022   7.3620710126103795E-016
 chl          36   1.7443086999209980E-009   2.5066472091661726E-009  0.69587323399260326     
 chl2c          37  0.33194055446728382        2.1353674699533250E-002  0.33194060000000003        4.2875731287711365E-022   5.1877456646920770E-016
 chl          37   8.5175764354235930E-011   2.5659945194382957E-010  0.33194055446728382     
 chl2c          38  0.38455716531896950        2.1543295686358745E-002  0.38455722500000000        4.2875731287711365E-022   5.3121106675532528E-016
 chl          38   9.8677157861920230E-011   2.5659945194382957E-010  0.38455716531896950     
 chl2c          39  0.47091086558606904        2.5670077108751441E-002  0.47091117500000002        1.4667040818766350E-021   5.2559394029888668E-016
 chl          39   1.2083547002377971E-010   2.5659945194382957E-010  0.47091086558606904     
 chl2c          40  0.66875547499999999        3.7687445774703773E-002  0.66875547499999999        4.2875731287711365E-022   7.2253720334470021E-006
 chl          40   1.6763340450233481E-009   2.5066472091661726E-009  0.66875547499999999     
 chl2c          41  0.44304987499999998        2.5582381488167241E-002  0.44304987499999998        1.4667040818766350E-021   7.3492141543843532E-006
 chl          41   1.1368635510878219E-010   2.5659945194382957E-010  0.44304987499999998     
 chl2c          42  0.76234377499999995        3.7949995630725070E-002  0.76234377499999995        4.2875731287711365E-022   9.9250994884120213E-006
 chl          42   1.9109268960239682E-009   2.5066472091596317E-009  0.76234377499999995     
 chl2c          43  0.29539925000000000        2.1185090152268007E-002  0.29539925000000000        4.2875731287711365E-022   8.1836658341844809E-006
 chl          43   7.5799285654618297E-011   2.5659945194382957E-010  0.29539925000000000     
 chl2c          44  0.62417262499999993        3.7536352708156646E-002  0.62417262500000004        4.2875731287711365E-022   8.6074757798825047E-007
 chl          44   1.5645805684900912E-009   2.5066472091596317E-009  0.62417262499999993     
 chl2c          45  0.37658860001675881        4.6544927192009838E-002  0.37662252499999999        1.2905939083802304E-022   2.6978228776274269E-019
 chl          45   9.6632428372594356E-011   2.5659945194382957E-010  0.37658860001675881     
 chl2c          46  0.51876028523532569        3.7083195475449568E-002  0.51876034999999998        4.2875731287711365E-022   8.9079311931848419E-016
 chl          46   1.3003490212079837E-009   2.5066472091596317E-009  0.51876028523532569     
 chl2c          47  0.61962273271471857        3.7519784612651236E-002  0.61962282499999999        4.2875731287711365E-022   8.9187471995506665E-016
 chl          47   1.5531755936912137E-009   2.5066472091596317E-009  0.61962273271471857     
 chl2c          48  0.71424949999999998        3.7823212136301673E-002  0.71424949999999998        4.2875731287711365E-022   7.0796763496531122E-006
 chl          48   1.7903715158186622E-009   2.5066472091596317E-009  0.71424949999999998     
 chl2c          49  0.53276113111299239        3.7152990741888416E-002  0.53276120000000005        4.2875731287711365E-022   8.8330226906557223E-016
 chl          49   1.3354442024531110E-009   2.5066472091596317E-009  0.53276113111299239     
 chl2c          50  0.38132569999999999        2.1533072915600981E-002  0.38132569999999999        4.2875731287711365E-022   2.0421488423694476E-006
 chl          50   9.7847965632097172E-011   2.5659945194382957E-010  0.38132569999999999     
 chl2c          51  0.22275918002668735        2.0700971146093840E-002  0.22275920000000002        4.2875731287711365E-022   5.3260189100907465E-016
 chl          51   5.7159883510304842E-011   2.5659945194382957E-010  0.22275918002668735     
 chl2c          52  0.63698869999999996        3.7581825176985564E-002  0.63698869999999996        4.2875731287711365E-022   5.1106305065422800E-006
 chl          52   1.5967059471253883E-009   2.5066472091661726E-009  0.63698869999999996     
 chl2c          53  0.75269794999999995        3.7925801262726190E-002  0.75269794999999995        4.2875731287711365E-022   8.9782218931945681E-006
 chl          53   1.8867482157125991E-009   2.5066472091661726E-009  0.75269794999999995     
 chl2c          54  0.51861118385852922        3.7082433371327092E-002  0.51861124999999997        4.2875731287711365E-022   8.7174910152550620E-016
 chl          54   1.2999752766579549E-009   2.5066472091596317E-009  0.51861118385852922     
 chl2c          55  0.57808280000000001        3.7357235588660491E-002  0.57808280000000001        4.2875731287711365E-022   5.6772392156507925E-006
 chl          55   1.4490496372831856E-009   2.5066472091596317E-009  0.57808280000000001     
 chl2c          56  0.61626068941135137        3.7507394187257688E-002  0.61626080000000005        4.2875731287711365E-022   7.3620710126103795E-016
 chl          56   1.5447481372317853E-009   2.5066472091661726E-009  0.61626068941135137     
 chl2c          57  0.68163451380606599        3.7727617852646313E-002  0.68163462500000005        4.2875731287711365E-022   8.9578474866874581E-016
 chl          57   1.7086172516988577E-009   2.5066472091596317E-009  0.68163451380606599     
 chl2c          58  0.69416802499999997        3.7765358178394853E-002  0.69416802499999997        4.2875731287711365E-022   1.1240570609113110E-005
 chl          58   1.7400343425586439E-009   2.5066472091661726E-009  0.69416802499999997     
 chl2c          59  0.53705127500000005        3.7173699120809672E-002  0.53705127500000005        4.2875731287711365E-022   1.3840146096141833E-005
 chl          59   1.3461980796543720E-009   2.5066472091596317E-009  0.53705127500000005     
 chl2c          60  0.64452155000000000        3.7607757740906807E-002  0.64452155000000000        4.2875731287711365E-022   1.3367571522419957E-005
 chl          60   1.6155881445507399E-009   2.5066472091596317E-009  0.64452155000000000     
 chl2c          61  0.70794127881344104        3.7805373434125003E-002  0.70794139999999994        4.2875731287711365E-022   8.8658756902267827E-016
 chl          61   1.7745590307866127E-009   2.5066472091596317E-009  0.70794127881344104     
 chl2c          62  0.76481592499999995        3.7956103087269030E-002  0.76481592499999995        4.2875731287711365E-022   7.2168739361133768E-006
 chl          62   1.9171237039220922E-009   2.5066472091596317E-009  0.76481592499999995     
 chl2c          63  0.72597904999999996        3.7855601011927406E-002  0.72597904999999996        4.2875731287711365E-022   1.0027917547685155E-005
 chl          63   1.8197733595956091E-009   2.5066472091661726E-009  0.72597904999999996     
 chl2c          64  0.48435706524940336        2.5708982294816416E-002  0.48435739999999999        1.4667040818766350E-021   5.1395219319128611E-016
 chl          64   1.2428575748811860E-010   2.5659945194382957E-010  0.48435706524940336     
 chl2c          65  0.76379975000000000        3.7953597170552002E-002  0.76379975000000000        4.2875731287711365E-022   1.1347918820828212E-005
 chl          65   1.9145765116993203E-009   2.5066472091661726E-009  0.76379975000000000     
 chl2c          66  0.35204626084727092        3.1840477731474713E-002  0.35213202499999996        3.0698566043454829E-022   2.2186436475119959E-019
 chl          66   9.0334877592284186E-011   2.5659945194382957E-010  0.35204626084727092     
 chl2c          67  0.75736746071227290        3.7937587124568600E-002  0.75736760000000003        4.2875731287711365E-022   8.8284011272640362E-016
 chl          67   1.8984530317027358E-009   2.5066472091596317E-009  0.75736746071227290     
 chl2c          68  0.72590779999999999        3.7855407263856986E-002  0.72590779999999999        4.2875731287711365E-022   1.1312454027298635E-005
 chl          68   1.8195947609819561E-009   2.5066472091661726E-009  0.72590779999999999     
 chl2c          69  0.45524208966557650        2.1732330561541505E-002  0.45524217500000003        4.2875731287711365E-022   5.2064557759104155E-016
 chl          69   1.1681487070995065E-010   2.5659945194382957E-010  0.45524208966557650     
 chl2c          70  0.48693213221575526        3.2658010878182209E-002  0.48694062500000002        3.0698566043454829E-022   4.2853119887702162E-018
 chl          70   1.2494651826040316E-010   2.5659945194382957E-010  0.48693213221575526     
 chl2c          71  0.23986107499999904        4.3481058864416305E-002  0.23986107500000001        1.2905939083802304E-022   3.8279100292755612E-009
 chl          71   6.1548220387657551E-011   2.5659945194382957E-010  0.23986107499999904     
 chl2c          72  0.62790522500000001        3.7549776402781669E-002  0.62790522500000001        4.2875731287711365E-022   3.6613777820156221E-006
 chl          72   1.5739368798671076E-009   2.5066472091661726E-009  0.62790522500000001     
 chl2c          73  0.35355325014615557        3.1852614277819484E-002  0.35362212500000001        3.0698566043454829E-022   2.7862601741246737E-019
 chl          73   9.0721570220463201E-011   2.5659945194382957E-010  0.35355325014615557     
 chl2c          74  0.64719590000000005        3.7616827685877569E-002  0.64719590000000005        4.2875731287711365E-022   1.3631687437742205E-005
 chl          74   1.6222917965145561E-009   2.5066472091596317E-009  0.64719590000000005     
 chl2c          75  0.71554197590885005        3.7826830779512356E-002  0.71554212500000003        4.2875731287711365E-022   7.3620710126103795E-016
 chl          75   1.7936112969531677E-009   2.5066472091661726E-009  0.71554197590885005     
 chl2c          76  0.55513977499999989        3.7257729557919804E-002  0.55513977500000000        4.2875731287711365E-022   7.7293916893131329E-007
 chl          76   1.3915395677008867E-009   2.5066472091661726E-009  0.55513977499999989     
 chl2c          77  0.52973029999999999        3.7138172437479272E-002  0.52973029999999999        4.2875731287711365E-022   1.3379734610832887E-005
 chl          77   1.3278469781022943E-009   2.5066472091596317E-009  0.52973029999999999     
 chl2c          78  0.45117195548976874        4.7515248899399322E-002  0.45117492500000000        1.2905939083802304E-022   4.4234573116033730E-018
 chl          78   1.1577047651110052E-010   2.5659945194382957E-010  0.45117195548976874     
 prod   1.0071129723146985E-009   1.2387344209833288E-015   10.000000000000000     
 dcdom   1.2429030716152992E-012  -6.9636717587230188E-012
 chl2c           1  0.60826437499999997        3.7477407714772232E-002  0.60826437499999997        1.0103945612686311E-022   1.1362033574689262E-005
 chl           1   1.9503293362158738E-012   3.2063842900808944E-012  0.60826437499999997     
 chl2c           2  0.48298057763119956        3.2640259920490348E-002  0.48302390000000001        7.1497958370797751E-023   1.9250842310086916E-019
 chl           2   2.7869969100363073E-014   5.7704119774448523E-014  0.48298057763119956     
 chl2c           3  0.75128686288208724        3.7922212503796585E-002  0.75128689999999998        1.0103945612686311E-022   7.6822612083990422E-016
 chl           3   2.4089143944892834E-012   3.2063842900808944E-012  0.75128686288208724     
 chl2c           4  0.77318742499999993        3.7976509103863923E-002  0.77318742499999993        1.0103945612686311E-022   8.6358468843856471E-006
 chl           4   2.4791360128080993E-012   3.2063842900808944E-012  0.77318742499999993     
 chl2c           5  0.48489672211621504        2.5710500362372445E-002  0.48489679999999996        3.4914938064915999E-022   5.2702691832068293E-016
 chl           5   2.7980538531231554E-014   5.7704119774448523E-014  0.48489672211621504     
 chl2c           6  0.29222854999999998        3.1261039902252048E-002  0.29222855000000003        7.1497958370797751E-023   5.0462172564798056E-008
 chl           6   1.6862791250713418E-014   5.7704119774448523E-014  0.29222854999999998     
 chl2c           7  0.22770328584696214        4.3064391842467263E-002  0.22770740000000000        2.9810647134796601E-023   1.8784836002511425E-019
 chl           7   1.3139417679548592E-014   5.7704119774448523E-014  0.22770328584696214     
 chl2c           8  0.49578364999999863        4.7969800906495587E-002  0.49578364999999996        2.9810647134796601E-023   2.7683575134341135E-009
 chl           8   2.8608759121813187E-014   5.7704119774448523E-014  0.49578364999999863     
 chl2c           9  0.28700202499999999        2.4803669054600401E-002  0.28700202499999999        3.4914938064915999E-022   4.3795545863317538E-006
 chl           9   1.6561199226109270E-014   5.7704119774448523E-014  0.28700202499999999     
 chl2c          10  0.39094657481884049        2.5387016219684602E-002  0.39094662499999999        3.4914938064915999E-022   5.3171078454298465E-016
 chl          10   2.2559227978756772E-014   5.7704119774448523E-014  0.39094657481884049     
 chl2c          11  0.49737572652841588        2.1820572217820047E-002  0.49737575000000001        1.0103945612686311E-022   5.3246099162866605E-016
 chl          11   2.8700628496499064E-014   5.7704119774448523E-014  0.49737572652841588     
 chl2c          12  0.30768942499999458        4.5290941298723353E-002  0.30768942500000002        2.9810647134796601E-023   2.5706658938320619E-010
 chl          12   1.7754947433530882E-014   5.7704119774448523E-014  0.30768942499999458     
 chl2c          13  0.75666275000000005        3.7935816987997487E-002  0.75666275000000005        1.0103945612686311E-022   7.0672521717283868E-006
 chl          13   2.4261515544868532E-012   3.2063842900775186E-012  0.75666275000000005     
 chl2c          14  0.39804024342993732        4.6856526101924839E-002  0.39804095000000000        2.9810647134796601E-023   3.3422652457719524E-018
 chl          14   2.2968561881931749E-014   5.7704119774448523E-014  0.39804024342993732     
 chl2c          15  0.25607261880318216        2.0954299823745293E-002  0.25607262500000000        1.0103945612686311E-022   5.3458721593493022E-016
 chl          15   1.4776445066375524E-014   5.7704119774448523E-014  0.25607261880318216     
 chl2c          16  0.71433214999999994        3.7823443882273475E-002  0.71433214999999994        1.0103945612686311E-022   9.0551696586996687E-006
 chl          16   2.2904233836597088E-012   3.2063842900808944E-012  0.71433214999999994     
 chl2c          17  0.62580857424539049        3.7542254757581245E-002  0.62580860000000005        1.0103945612686311E-022   7.6822612083990422E-016
 chl          17   2.0065827810583432E-012   3.2063842900808944E-012  0.62580857424539049     
 chl2c          18  0.47925942482003181        2.5694475239060960E-002  0.47925950000000000        3.4914938064915999E-022   5.3336011453035859E-016
 chl          18   2.7655243252848424E-014   5.7704119774448523E-014  0.47925942482003181     
 chl2c          19  0.63367130000000005        3.7570220750293731E-002  0.63367130000000005        1.0103945612686311E-022   1.0393963541869954E-005
 chl          19   2.0317937013951377E-012   3.2063842900808944E-012  0.63367130000000005     
 chl2c          20  0.50678202500000002        3.7020645196759419E-002  0.50678202500000002        1.0103945612686311E-022   4.4878352790745501E-006
 chl          20   1.6249379234536724E-012   3.2063842900775186E-012  0.50678202500000002     
 chl2c          21  0.71973185000000006        3.7838475073783531E-002  0.71973185000000006        1.0103945612686311E-022   1.3156838584115924E-005
 chl          21   2.3077368969084293E-012   3.2063842900775186E-012  0.71973185000000006     
 chl2c          22  0.64616892500000001        3.7613353106285476E-002  0.64616892500000001        1.0103945612686311E-022   3.1232259131364544E-006
 chl          22   2.0718658898584597E-012   3.2063842900808944E-012  0.64616892500000001     
 chl2c          23  0.41564179999999828        3.2286562315070731E-002  0.41564179999999995        7.1497958370797751E-023   3.8141497128744095E-009
 chl          23   2.3984244210467280E-014   5.7704119774448523E-014  0.41564179999999828     
 chl2c          24  0.57597490617393421        3.7348402796863071E-002  0.57597492500000003        1.0103945612686311E-022   8.9024300809614958E-016
 chl          24   1.8467968906349753E-012   3.2063842900775186E-012  0.57597490617393421     
 chl2c          25  0.31406487499999952        4.5426679235459781E-002  0.31406487500000002        2.9810647134796601E-023   2.8662052059285051E-009
 chl          25   1.8122837163947176E-014   5.7704119774448523E-014  0.31406487499999952     
 chl2c          26  0.49425817996635996        4.7955660680174553E-002  0.49427735000000000        2.9810647134796601E-023   1.8995166664858434E-019
 chl          26   2.8520733216279768E-014   5.7704119774448523E-014  0.49425817996635996     
 chl2c          27  0.30964686866974939        4.5333133499525620E-002  0.30964730000000001        2.9810647134796601E-023   3.3133360096243932E-018
 chl          27   1.7867899997502151E-014   5.7704119774448523E-014  0.30964686866974939     
 chl2c          28  0.28776252596764063        3.1209236063453518E-002  0.28776342500000002        7.1497958370797751E-023   3.2927454029287658E-018
 chl          28   1.6605083265034589E-014   5.7704119774448523E-014  0.28776252596764063     
 chl2c          29  0.68676294858294118        3.7743217595736761E-002  0.68676297499999994        1.0103945612686311E-022   9.0196622015755567E-016
 chl          29   2.2020259293436572E-012   3.2063842900775186E-012  0.68676294858294118     
 chl2c          30  0.38930272556167128        2.5380056985171612E-002  0.38930277499999999        3.4914938064915999E-022   5.3517084194248057E-016
 chl          30   2.2464371104329942E-014   5.7704119774448523E-014  0.38930272556167128     
 chl2c          31  0.63559382748205628        3.7576959810037038E-002  0.63559385000000002        1.0103945612686311E-022   9.0634100781229629E-016
 chl          31   2.0379580633087060E-012   3.2063842900775186E-012  0.63559382748205628     
 chl2c          32  0.24722666923345521        2.0893126428578448E-002  0.24722667500000001        1.0103945612686311E-022   5.3547102896164301E-016
 chl          32   1.4265997332885267E-014   5.7704119774448523E-014  0.24722666923345521     
 chl2c          33  0.60343137499999999        3.7458922634011876E-002  0.60343137499999999        1.0103945612686311E-022   1.1549215341252866E-005
 chl          33   1.9348328809398759E-012   3.2063842900775186E-012  0.60343137499999999     
 chl2c          34  0.38241015150072605        2.5350269098008315E-002  0.38241020000000003        3.4914938064915999E-022   5.2638671929981077E-016
 chl          34   2.2066641185162902E-014   5.7704119774448523E-014  0.38241015150072605     
 chl2c          35  0.49574636874377653        2.5740370148566064E-002  0.49574644999999995        3.4914938064915999E-022   5.2801201066397940E-016
 chl          35   2.8606607839738807E-014   5.7704119774448523E-014  0.49574636874377653     
 chl2c          36  0.69587334315565252        3.7770393924465726E-002  0.69587337500000002        1.0103945612686311E-022   7.6822612083990422E-016
 chl          36   2.2312373553803557E-012   3.2063842900808944E-012  0.69587334315565252     
 chl2c          37  0.33194058941094495        2.1353674699533250E-002  0.33194060000000003        1.0103945612686311E-022   5.2568372582031547E-016
 chl          37   1.9154339529370207E-014   5.7704119774448523E-014  0.33194058941094495     
 chl2c          38  0.38455721104985385        2.1543295686358745E-002  0.38455722500000000        1.0103945612686311E-022   5.3555512682791966E-016
 chl          38   2.2190535366548646E-014   5.7704119774448523E-014  0.38455721104985385     
 chl2c          39  0.47091110210855297        2.5670077108751441E-002  0.47091117500000002        3.4914938064915999E-022   5.3110774476709925E-016
 chl          39   2.7173510639189501E-014   5.7704119774448523E-014  0.47091110210855297     
 chl2c          40  0.66875547499999999        3.7687445774703773E-002  0.66875547499999999        1.0103945612686311E-022   9.0374169252936243E-006
 chl          40   2.1442870489455861E-012   3.2063842900808944E-012  0.66875547499999999     
 chl2c          41  0.44304987499999998        2.5582381488167241E-002  0.44304987499999998        3.4914938064915999E-022   7.6009506674593651E-006
 chl          41   2.5565803053054446E-014   5.7704119774448523E-014  0.44304987499999998     
 chl2c          42  0.76234377499999995        3.7949995630725070E-002  0.76234377499999995        1.0103945612686311E-022   1.1451128272214383E-005
 chl          42   2.4443671037983903E-012   3.2063842900775186E-012  0.76234377499999995     
 chl2c          43  0.29539925000000000        2.1185090152268007E-002  0.29539925000000000        1.0103945612686311E-022   7.7689050682769895E-006
 chl          43   1.7045753703282262E-014   5.7704119774448523E-014  0.29539925000000000     
 chl2c          44  0.62417262500000004        3.7536352708156646E-002  0.62417262500000004        1.0103945612686311E-022   3.3239142030245877E-006
 chl          44   2.0013372990964462E-012   3.2063842900775186E-012  0.62417262500000004     
 chl2c          45  0.37661416829045685        4.6544927192009838E-002  0.37662252499999999        2.9810647134796601E-023   2.5299331495427715E-019
 chl          45   2.1732189075786836E-014   5.7704119774448523E-014  0.37661416829045685     
 chl2c          46  0.51876033499870489        3.7083195475449568E-002  0.51876034999999998        1.0103945612686311E-022   9.0628707950817512E-016
 chl          46   1.6633449884551980E-012   3.2063842900775186E-012  0.51876033499870489     
 chl2c          47  0.61962280361871691        3.7519784612651236E-002  0.61962282499999999        1.0103945612686311E-022   9.0715613198127252E-016
 chl          47   1.9867488232968415E-012   3.2063842900775186E-012  0.61962280361871691     
 chl2c          48  0.71424949999999998        3.7823212136301673E-002  0.71424949999999998        1.0103945612686311E-022   9.4108496956369232E-006
 chl          48   2.2901583759957226E-012   3.2063842900775186E-012  0.71424949999999998     
 chl2c          49  0.53276118407204642        3.7152990741888416E-002  0.53276120000000005        1.0103945612686311E-022   9.0025633002835761E-016
 chl          49   1.7082370909717069E-012   3.2063842900775186E-012  0.53276118407204642     
 chl2c          50  0.38132568612857753        2.1533072915600981E-002  0.38132569999999999        1.0103945612686311E-022   5.2958069227493985E-016
 chl          50   2.2004063065437203E-014   5.7704119774448523E-014  0.38132568612857753     
 chl2c          51  0.22275919532869587        2.0700971146093840E-002  0.22275920000000002        1.0103945612686311E-022   5.3665372816226172E-016
 chl          51   1.2854123288106840E-014   5.7704119774448523E-014  0.22275919532869587     
 chl2c          52  0.63698869999999996        3.7581825176985564E-002  0.63698869999999996        1.0103945612686311E-022   7.3639335115185773E-006
 chl          52   2.0424305606390518E-012   3.2063842900808944E-012  0.63698869999999996     
 chl2c          53  0.75269794999999995        3.7925801262726190E-002  0.75269794999999995        1.0103945612686311E-022   1.0219509668001992E-005
 chl          53   2.4134388820560942E-012   3.2063842900808944E-012  0.75269794999999995     
 chl2c          54  0.51861123474861837        3.7082433371327092E-002  0.51861124999999997        1.0103945612686311E-022   8.9091376400875015E-016
 chl          54   1.6628669157556740E-012   3.2063842900775186E-012  0.51861123474861837     
 chl2c          55  0.57808280000000001        3.7357235588660491E-002  0.57808280000000001        1.0103945612686311E-022   2.5833662250307074E-006
 chl          55   1.8535556082840243E-012   3.2063842900775186E-012  0.57808280000000001     
 chl2c          56  0.61626077502525844        3.7507394187257688E-002  0.61626080000000005        1.0103945612686311E-022   7.6822612083990422E-016
 chl          56   1.9759688676340652E-012   3.2063842900808944E-012  0.61626077502525844     
 chl2c          57  0.68163459921408753        3.7727617852646313E-002  0.68163462500000005        1.0103945612686311E-022   9.1029418485763810E-016
 chl          57   2.1855824704933361E-012   3.2063842900775186E-012  0.68163459921408753     
 chl2c          58  0.69416802499999997        3.7765358178394853E-002  0.69416802499999997        1.0103945612686311E-022   1.0910744208897609E-005
 chl          58   2.2257694500364814E-012   3.2063842900808944E-012  0.69416802499999997     
 chl2c          59  0.53705127500000005        3.7173699120809672E-002  0.53705127500000005        1.0103945612686311E-022   1.3486008718597207E-005
 chl          59   1.7219927711261014E-012   3.2063842900775186E-012  0.53705127500000005     
 chl2c          60  0.64452155000000000        3.7607757740906807E-002  0.64452155000000000        1.0103945612686311E-022   1.2903431753804090E-005
 chl          60   2.0665837725364118E-012   3.2063842900775186E-012  0.64452155000000000     
 chl2c          61  0.70794137195766926        3.7805373434125003E-002  0.70794139999999994        1.0103945612686311E-022   9.0290384345754228E-016
 chl          61   2.2699320933409959E-012   3.2063842900775186E-012  0.70794137195766926     
 chl2c          62  0.76481592499999995        3.7956103087269030E-002  0.76481592499999995        1.0103945612686311E-022   9.4765140884433820E-006
 chl          62   2.4522937667211055E-012   3.2063842900775186E-012  0.76481592499999995     
 chl2c          63  0.72597904999999996        3.7855601011927406E-002  0.72597904999999996        1.0103945612686311E-022   8.6365931359535166E-006
 chl          63   2.3277678208478520E-012   3.2063842900808944E-012  0.72597904999999996     
 chl2c          64  0.48435732151557953        2.5708982294816416E-002  0.48435739999999999        3.4914938064915999E-022   5.2183070825610879E-016
 chl          64   2.7949412894366074E-014   5.7704119774448523E-014  0.48435732151557953     
 chl2c          65  0.76379975000000000        3.7953597170552002E-002  0.76379975000000000        1.0103945612686311E-022   1.1361811822222275E-005
 chl          65   2.4490355191677148E-012   3.2063842900808944E-012  0.76379975000000000     
 chl2c          66  0.35211072068360594        3.1840477731474713E-002  0.35213202499999996        7.1497958370797751E-023   2.0805627282484619E-019
 chl          66   2.0318239200194186E-014   5.7704119774448523E-014  0.35211072068360594     
 chl2c          67  0.75736756779760994        3.7937587124568600E-002  0.75736760000000003        1.0103945612686311E-022   8.9988356938303020E-016
 chl          67   2.4284114712004765E-012   3.2063842900775186E-012  0.75736756779760994     
 chl2c          68  0.72590779999999999        3.7855407263856986E-002  0.72590779999999999        1.0103945612686311E-022   1.1116968645800848E-005
 chl          68   2.3275393659671837E-012   3.2063842900808944E-012  0.72590779999999999     
 chl2c          69  0.45524215513944466        2.1732330561541505E-002  0.45524217500000003        1.0103945612686311E-022   5.2717471906459574E-016
 chl          69   2.6269347846544591E-014   5.7704119774448523E-014  0.45524215513944466     
 chl2c          70  0.48693854285612298        3.2658010878182209E-002  0.48694062500000002        7.1497958370797751E-023   4.0710184394131147E-018
 chl          70   2.8098359999765156E-014   5.7704119774448523E-014  0.48693854285612298     
 chl2c          71  0.23986107499999973        4.3481058864416305E-002  0.23986107500000001        2.9810647134796601E-023   3.4411070123838634E-009
 chl          71   1.3840972201027964E-014   5.7704119774448523E-014  0.23986107499999973     
 chl2c          72  0.62790522500000001        3.7549776402781669E-002  0.62790522500000001        1.0103945612686311E-022   6.0541849935212663E-006
 chl          72   2.0133054490997095E-012   3.2063842900808944E-012  0.62790522500000001     
 chl2c          73  0.35360501682126033        3.1852614277819484E-002  0.35362212500000001        7.1497958370797751E-023   2.6128694654724882E-019
 chl          73   2.0404466243499893E-014   5.7704119774448523E-014  0.35360501682126033     
 chl2c          74  0.64719590000000005        3.7616827685877569E-002  0.64719590000000005        1.0103945612686311E-022   1.3124123156548971E-005
 chl          74   2.0751587663625808E-012   3.2063842900775186E-012  0.64719590000000005     
 chl2c          75  0.71554209133006119        3.7826830779512356E-002  0.71554212500000003        1.0103945612686311E-022   7.6822612083990422E-016
 chl          75   2.2943029205323366E-012   3.2063842900808944E-012  0.71554209133006119     
 chl2c          76  0.55513975473360011        3.7257729557919804E-002  0.55513977500000000        1.0103945612686311E-022   7.6822612083990422E-016
 chl          76   1.7799913883771761E-012   3.2063842900808944E-012  0.55513975473360011     
 chl2c          77  0.52973029999999999        3.7138172437479272E-002  0.52973029999999999        1.0103945612686311E-022   1.3095033079398074E-005
 chl          77   1.6985189118980509E-012   3.2063842900775186E-012  0.52973029999999999     
 chl2c          78  0.45117420298958033        4.7515248899399322E-002  0.45117492500000000        2.9810647134796601E-023   4.2023010111393452E-018
 chl          78   2.6034610248452096E-014   5.7704119774448523E-014  0.45117420298958033     
 prod   9.4440997765427642E-010   2.8688873000329364E-016   10.000000000000000     
 dcdom   1.2479054237093471E-012  -4.9734395325298033E-012
 chl2c           1  0.60826437499999997        3.7477407714772232E-002  0.60826437499999997        0.0000000000000000        1.1341490573514457E-005
 chl           1   1.1247307195187157E-015   1.8490820204926776E-015  0.60826437499999997     
 chl2c           2  0.48302390000000001        3.2640259920490348E-002  0.48302390000000001        0.0000000000000000        1.7974198326697349E-019
 chl           2   5.0214620269079468E-018   1.0395887298553853E-017  0.48302390000000001     
 chl2c           3  0.75128689999999998        3.7922212503796585E-002  0.75128689999999998        0.0000000000000000        7.9600758768322727E-016
 chl           3   1.3891910990216801E-015   1.8490820204926776E-015  0.75128689999999998     
 chl2c           4  0.77318742499999993        3.7976509103863923E-002  0.77318742499999993        0.0000000000000000        6.9052213124194361E-006
 chl           4   1.4296869660385306E-015   1.8490820204926776E-015  0.77318742499999993     
 chl2c           5  0.48489679999999996        2.5710500362372445E-002  0.48489679999999996        0.0000000000000000        5.3109656773957195E-016
 chl           5   5.0409324842294073E-018   1.0395887298553853E-017  0.48489679999999996     
 chl2c           6  0.29222855000000003        3.1261039902252048E-002  0.29222855000000003        0.0000000000000000        5.3655051794561790E-008
 chl           6   3.0379750712198099E-018   1.0395887298553853E-017  0.29222855000000003     
 chl2c           7  0.22770740000000000        4.3064391842467263E-002  0.22770740000000000        0.0000000000000000        1.7539085979543713E-019
 chl           7   2.3672204674467218E-018   1.0395887298553853E-017  0.22770740000000000     
 chl2c           8  0.49578364999999996        4.7969800906495587E-002  0.49578364999999996        0.0000000000000000        2.2136730701656397E-009
 chl           8   5.1541109498656687E-018   1.0395887298553853E-017  0.49578364999999996     
 chl2c           9  0.28700202499999999        2.4803669054600401E-002  0.28700202499999999        0.0000000000000000        2.2957743334425113E-006
 chl           9   2.9836407063567355E-018   1.0395887298553853E-017  0.28700202499999999     
 chl2c          10  0.39094662499999999        2.5387016219684602E-002  0.39094662499999999        0.0000000000000000        5.3501675696772168E-016
 chl          10   4.0642370532499962E-018   1.0395887298553853E-017  0.39094662499999999     
 chl2c          11  0.49737575000000001        2.1820572217820047E-002  0.49737575000000001        0.0000000000000000        5.3564368329870687E-016
 chl          11   5.1706622420336967E-018   1.0395887298553853E-017  0.49737575000000001     
 chl2c          12  0.30768942500000002        4.5290941298723353E-002  0.30768942500000002        0.0000000000000000        8.4837598663822089E-010
 chl          12   3.1987045852568386E-018   1.0395887298553853E-017  0.30768942500000002     
 chl2c          13  0.75666275000000005        3.7935816987997487E-002  0.75666275000000005        0.0000000000000000        8.9992171126760902E-006
 chl          13   1.3991314866009735E-015   1.8490820204919211E-015  0.75666275000000005     
 chl2c          14  0.39804095000000000        4.6856526101924839E-002  0.39804095000000000        0.0000000000000000        3.1661748695637179E-018
 chl          14   4.1379888564093092E-018   1.0395887298553853E-017  0.39804095000000000     
 chl2c          15  0.25607262500000000        2.0954299823745293E-002  0.25607262500000000        0.0000000000000000        5.3741914955900892E-016
 chl          15   2.6621021497448438E-018   1.0395887298553853E-017  0.25607262500000000     
 chl2c          16  0.71433214999999994        3.7823443882273475E-002  0.71433214999999994        0.0000000000000000        1.0124034290094020E-005
 chl          16   1.3208587352248784E-015   1.8490820204926776E-015  0.71433214999999994     
 chl2c          17  0.62580860000000005        3.7542254757581245E-002  0.62580860000000005        0.0000000000000000        7.9600758768322727E-016
 chl          17   1.1571714305296940E-015   1.8490820204926776E-015  0.62580860000000005     
 chl2c          18  0.47925950000000000        2.5694475239060960E-002  0.47925950000000000        0.0000000000000000        5.3639472041600172E-016
 chl          18   4.9823277487612704E-018   1.0395887298553853E-017  0.47925950000000000     
 chl2c          19  0.63367130000000005        3.7570220750293731E-002  0.63367130000000005        0.0000000000000000        9.4079287187969008E-006
 chl          19   1.1717102077322217E-015   1.8490820204926776E-015  0.63367130000000005     
 chl2c          20  0.50678202500000002        3.7020645196759419E-002  0.50678202500000002        0.0000000000000000        6.7686446761513179E-006
 chl          20   9.3708153073598726E-016   1.8490820204919211E-015  0.50678202500000002     
 chl2c          21  0.71973185000000006        3.7838475073783531E-002  0.71973185000000006        0.0000000000000000        1.2502367244501219E-005
 chl          21   1.3308432234103884E-015   1.8490820204919211E-015  0.71973185000000006     
 chl2c          22  0.64616892500000001        3.7613353106285476E-002  0.64616892500000001        0.0000000000000000        1.0654448971219312E-006
 chl          22   1.1948193414185814E-015   1.8490820204926776E-015  0.64616892500000001     
 chl2c          23  0.41564179999999995        3.2286562315070731E-002  0.41564179999999995        0.0000000000000000        3.5978630449210535E-009
 chl          23   4.3209653093680601E-018   1.0395887298553853E-017  0.41564179999999995     
 chl2c          24  0.57597492500000003        3.7348402796863071E-002  0.57597492500000003        0.0000000000000000        9.0240263338195473E-016
 chl          24   1.0650248780716828E-015   1.8490820204919211E-015  0.57597492500000003     
 chl2c          25  0.31406487500000002        4.5426679235459781E-002  0.31406487500000002        0.0000000000000000        2.7270651307398748E-009
 chl          25   3.2649830449344036E-018   1.0395887298553853E-017  0.31406487500000002     
 chl2c          26  0.49427735000000000        4.7955660680174553E-002  0.49427735000000000        0.0000000000000000        1.7735472677578095E-019
 chl          26   5.1384516248278573E-018   1.0395887298553853E-017  0.49427735000000000     
 chl2c          27  0.30964730000000001        4.5333133499525620E-002  0.30964730000000001        0.0000000000000000        3.1387623215984334E-018
 chl          27   3.2190584331014948E-018   1.0395887298553853E-017  0.30964730000000001     
 chl2c          28  0.28776342500000002        3.1209236063453518E-002  0.28776342500000002        0.0000000000000000        3.1192513088943125E-018
 chl          28   2.9915561349458547E-018   1.0395887298553853E-017  0.28776342500000002     
 chl2c          29  0.68676297499999994        3.7743217595736761E-002  0.68676297499999994        0.0000000000000000        9.1231924458687901E-016
 chl          29   1.2698810694120427E-015   1.8490820204919211E-015  0.68676297499999994     
 chl2c          30  0.38930277499999999        2.5380056985171612E-002  0.38930277499999999        0.0000000000000000        5.3790616043336912E-016
 chl          30   4.0471477739142683E-018   1.0395887298553853E-017  0.38930277499999999     
 chl2c          31  0.63559385000000002        3.7576959810037038E-002  0.63559385000000002        0.0000000000000000        9.1600914648132422E-016
 chl          31   1.1752651603702390E-015   1.8490820204919211E-015  0.63559385000000002     
 chl2c          32  0.24722667500000001        2.0893126428578448E-002  0.24722667500000001        0.0000000000000000        5.3815660004030179E-016
 chl          32   2.5701406504962016E-018   1.0395887298553853E-017  0.24722667500000001     
 chl2c          33  0.60343137499999999        3.7458922634011876E-002  0.60343137499999999        0.0000000000000000        9.8857862210741994E-006
 chl          33   1.1157941061132182E-015   1.8490820204919211E-015  0.60343137499999999     
 chl2c          34  0.38241020000000003        2.5350269098008315E-002  0.38241020000000003        0.0000000000000000        5.3055991626960398E-016
 chl          34   3.9754933410174392E-018   1.0395887298553853E-017  0.38241020000000003     
 chl2c          35  0.49574644999999995        2.5740370148566064E-002  0.49574644999999995        0.0000000000000000        5.3192193075113424E-016
 chl          35   5.1537242228581627E-018   1.0395887298553853E-017  0.49574644999999995     
 chl2c          36  0.69587337500000002        3.7770393924465726E-002  0.69587337500000002        0.0000000000000000        7.9600758768322727E-016
 chl          36   1.2867269462520588E-015   1.8490820204926776E-015  0.69587337500000002     
 chl2c          37  0.33194060000000003        2.1353674699533250E-002  0.33194060000000003        0.0000000000000000        5.2997039041298085E-016
 chl          37   3.4508170674143454E-018   1.0395887298553853E-017  0.33194060000000003     
 chl2c          38  0.38455722500000000        2.1543295686358745E-002  0.38455722500000000        0.0000000000000000        5.3822675469044168E-016
 chl          38   3.9978135709446162E-018   1.0395887298553853E-017  0.38455722500000000     
 chl2c          39  0.47091117500000002        2.5670077108751441E-002  0.47091117500000002        0.0000000000000000        5.3451262647652999E-016
 chl          39   4.8955395029295712E-018   1.0395887298553853E-017  0.47091117500000002     
 chl2c          40  0.66875547499999999        3.7687445774703773E-002  0.66875547499999999        0.0000000000000000        1.0112352323295788E-005
 chl          40   1.2365837249285404E-015   1.8490820204926776E-015  0.66875547499999999     
 chl2c          41  0.44304987499999998        2.5582381488167241E-002  0.44304987499999998        0.0000000000000000        7.4997269576056504E-006
 chl          41   4.6058965681383719E-018   1.0395887298553853E-017  0.44304987499999998     
 chl2c          42  0.76234377499999995        3.7949995630725070E-002  0.76234377499999995        0.0000000000000000        1.2108529138101226E-005
 chl          42   1.4096361677864384E-015   1.8490820204919211E-015  0.76234377499999995     
 chl2c          43  0.29539925000000000        2.1185090152268007E-002  0.29539925000000000        0.0000000000000000        7.1256375674258649E-006
 chl          43   3.0709373110773344E-018   1.0395887298553853E-017  0.29539925000000000     
 chl2c          44  0.62417262500000004        3.7536352708156646E-002  0.62417262500000004        0.0000000000000000        5.6247175447200278E-006
 chl          44   1.1541463785707462E-015   1.8490820204919211E-015  0.62417262500000004     
 chl2c          45  0.37662252499999999        4.6544927192009838E-002  0.37662252499999999        0.0000000000000000        2.3621746267430827E-019
 chl          45   3.9153253239967806E-018   1.0395887298553853E-017  0.37662252499999999     
 chl2c          46  0.51876034999999998        3.7083195475449568E-002  0.51876034999999998        0.0000000000000000        9.1596369594326300E-016
 chl          46   9.5923043612909615E-016   1.8490820204919211E-015  0.51876034999999998     
 chl2c          47  0.61962282499999999        3.7519784612651236E-002  0.61962282499999999        0.0000000000000000        9.1669602310619623E-016
 chl          47   1.1457334251939120E-015   1.8490820204919211E-015  0.61962282499999999     
 chl2c          48  0.71424949999999998        3.7823212136301673E-002  0.71424949999999998        0.0000000000000000        1.0788389807561086E-005
 chl          48   1.3207059085953445E-015   1.8490820204919211E-015  0.71424949999999998     
 chl2c          49  0.53276120000000005        3.7152990741888416E-002  0.53276120000000005        0.0000000000000000        9.1087546841342377E-016
 chl          49   9.8511915613570064E-016   1.8490820204919211E-015  0.53276120000000005     
 chl2c          50  0.38132569999999999        2.1533072915600981E-002  0.38132569999999999        0.0000000000000000        5.3323527337903306E-016
 chl          50   3.9642190012421571E-018   1.0395887298553853E-017  0.38132569999999999     
 chl2c          51  0.22275920000000002        2.0700971146093840E-002  0.22275920000000002        0.0000000000000000        5.3914296222865332E-016
 chl          51   2.3157795379160178E-018   1.0395887298553853E-017  0.22275920000000002     
 chl2c          52  0.63698869999999996        3.7581825176985564E-002  0.63698869999999996        0.0000000000000000        8.9249123892080862E-006
 chl          52   1.1778443524270040E-015   1.8490820204926776E-015  0.63698869999999996     
 chl2c          53  0.75269794999999995        3.7925801262726190E-002  0.75269794999999995        0.0000000000000000        1.0837438052558695E-005
 chl          53   1.3918002462066963E-015   1.8490820204926776E-015  0.75269794999999995     
 chl2c          54  0.51861124999999997        3.7082433371327092E-002  0.51861124999999997        0.0000000000000000        9.0297115834270731E-016
 chl          54   9.5895473799984068E-016   1.8490820204919211E-015  0.51861124999999997     
 chl2c          55  0.57808280000000001        3.7357235588660491E-002  0.57808280000000001        0.0000000000000000        3.3079474944194339E-007
 chl          55   1.0689225118356272E-015   1.8490820204919211E-015  0.57808280000000001     
 chl2c          56  0.61626080000000005        3.7507394187257688E-002  0.61626080000000005        0.0000000000000000        7.9600758768322727E-016
 chl          56   1.1395167652144341E-015   1.8490820204926776E-015  0.61626080000000005     
 chl2c          57  0.68163462500000005        3.7727617852646313E-002  0.68163462500000005        0.0000000000000000        9.1933849174768992E-016
 chl          57   1.2603983296322530E-015   1.8490820204919211E-015  0.68163462500000005     
 chl2c          58  0.69416802499999997        3.7765358178394853E-002  0.69416802499999997        0.0000000000000000        1.0287733928649949E-005
 chl          58   1.2835736142284114E-015   1.8490820204926776E-015  0.69416802499999997     
 chl2c          59  0.53705127500000005        3.7173699120809672E-002  0.53705127500000005        0.0000000000000000        1.3118189867262958E-005
 chl          59   9.9305185668476244E-016   1.8490820204919211E-015  0.53705127500000005     
 chl2c          60  0.64452155000000000        3.7607757740906807E-002  0.64452155000000000        0.0000000000000000        1.2183602038654826E-005
 chl          60   1.1917732099245848E-015   1.8490820204919211E-015  0.64452155000000000     
 chl2c          61  0.70794139999999994        3.7805373434125003E-002  0.70794139999999994        0.0000000000000000        9.1311056714663336E-016
 chl          61   1.3090417143018792E-015   1.8490820204919211E-015  0.70794139999999994     
 chl2c          62  0.76481592499999995        3.7956103087269030E-002  0.76481592499999995        0.0000000000000000        1.0791960874206096E-005
 chl          62   1.4142073759033974E-015   1.8490820204919211E-015  0.76481592499999995     
 chl2c          63  0.72597904999999996        3.7855601011927406E-002  0.72597904999999996        0.0000000000000000        6.9061876134665888E-006
 chl          63   1.3423948086093546E-015   1.8490820204926776E-015  0.72597904999999996     
 chl2c          64  0.48435739999999999        2.5708982294816416E-002  0.48435739999999999        0.0000000000000000        5.2673481488844067E-016
 chl          64   5.0353249426205679E-018   1.0395887298553853E-017  0.48435739999999999     
 chl2c          65  0.76379975000000000        3.7953597170552002E-002  0.76379975000000000        0.0000000000000000        1.1342278037997486E-005
 chl          65   1.4123283849818021E-015   1.8490820204926776E-015  0.76379975000000000     
 chl2c          66  0.35213202499999996        3.1840477731474713E-002  0.35213202499999996        0.0000000000000000        1.9425912119333453E-019
 chl          66   3.6607248461115478E-018   1.0395887298553853E-017  0.35213202499999996     
 chl2c          67  0.75736760000000003        3.7937587124568600E-002  0.75736760000000003        0.0000000000000000        9.1056060343181299E-016
 chl          67   1.4004348120631173E-015   1.8490820204919211E-015  0.75736760000000003     
 chl2c          68  0.72590779999999999        3.7855407263856986E-002  0.72590779999999999        0.0000000000000000        1.0686320380382021E-005
 chl          68   1.3422630615153946E-015   1.8490820204926776E-015  0.72590779999999999     
 chl2c          69  0.45524217500000003        2.1732330561541505E-002  0.45524217500000003        0.0000000000000000        5.3122043376044127E-016
 chl          69   4.7326463448485306E-018   1.0395887298553853E-017  0.45524217500000003     
 chl2c          70  0.48694062500000002        3.2658010878182209E-002  0.48694062500000002        0.0000000000000000        3.8567643824025325E-018
 chl          70   5.0621798585873748E-018   1.0395887298553853E-017  0.48694062500000002     
 chl2c          71  0.23986107500000001        4.3481058864416305E-002  0.23986107500000001        0.0000000000000000        3.0925421184628024E-009
 chl          71   2.4935687030099731E-018   1.0395887298553853E-017  0.23986107500000001     
 chl2c          72  0.62790522500000001        3.7549776402781669E-002  0.62790522500000001        0.0000000000000000        7.8874642577862885E-006
 chl          72   1.1610482621209095E-015   1.8490820204926776E-015  0.62790522500000001     
 chl2c          73  0.35362212500000001        3.1852614277819484E-002  0.35362212500000001        0.0000000000000000        2.4396139150536608E-019
 chl          73   3.6762157577751234E-018   1.0395887298553853E-017  0.35362212500000001     
 chl2c          74  0.64719590000000005        3.7616827685877569E-002  0.64719590000000005        0.0000000000000000        1.2389381369724754E-005
 chl          74   1.1967183024260874E-015   1.8490820204919211E-015  0.64719590000000005     
 chl2c          75  0.71554212500000003        3.7826830779512356E-002  0.71554212500000003        0.0000000000000000        7.9600758768322727E-016
 chl          75   1.3230960782426242E-015   1.8490820204926776E-015  0.71554212500000003     
 chl2c          76  0.55513977500000000        3.7257729557919804E-002  0.55513977500000000        0.0000000000000000        7.9600758768322727E-016
 chl          76   1.0264989768128505E-015   1.8490820204926776E-015  0.55513977500000000     
 chl2c          77  0.52973029999999999        3.7138172437479272E-002  0.52973029999999999        0.0000000000000000        1.2694202244630046E-005
 chl          77   9.7951477343979144E-016   1.8490820204919211E-015  0.52973029999999999     
 chl2c          78  0.45117492500000000        4.7515248899399322E-002  0.45117492500000000        0.0000000000000000        3.9811806890746250E-018
 chl          78   4.6903636722334877E-018   1.0395887298553853E-017  0.45117492500000000     
 prod   8.8175980244878818E-010   0.0000000000000000        10.000000000000000     
 dcdom   1.2529350060908395E-012  -2.9846857737136165E-012
 chl2c           1  0.60826437499999997        3.7477407714772232E-002  0.60826437499999997        0.0000000000000000        1.1191962189770556E-005
 chl           1   1.0561629219137723E-019   1.7363550543524308E-019  0.60826437499999997     
 chl2c           2  0.48302390000000001        3.2640259920490348E-002  0.48302390000000001        0.0000000000000000        1.6697161332783818E-019
 chl           2   1.8121828502111703E-022   3.7517457215081288E-022  0.48302390000000001     
 chl2c           3  0.75128689999999998        3.7922212503796585E-002  0.75128689999999998        0.0000000000000000        8.1690814514559082E-016
 chl           3   1.3045008060837692E-019   1.7363550543524308E-019  0.75128689999999998     
 chl2c           4  0.77318742499999993        3.7976509103863923E-002  0.77318742499999993        0.0000000000000000        4.7548631653307673E-006
 chl           4   1.3425278933604908E-019   1.7363550543524308E-019  0.77318742499999993     
 chl2c           5  0.48489679999999996        2.5710500362372445E-002  0.48489679999999996        0.0000000000000000        5.3399187788592819E-016
 chl           5   1.8192094947729828E-022   3.7517457215081288E-022  0.48489679999999996     
 chl2c           6  0.29222855000000003        3.1261039902252048E-002  0.29222855000000003        0.0000000000000000        5.2279845138388815E-008
 chl           6   1.0963672121650243E-022   3.7517457215081288E-022  0.29222855000000003     
 chl2c           7  0.22770740000000000        4.3064391842467263E-002  0.22770740000000000        0.0000000000000000        1.6292953854815239E-019
 chl           7   8.5430026370574004E-023   3.7517457215081288E-022  0.22770740000000000     
 chl2c           8  0.49578364999999996        4.7969800906495587E-002  0.49578364999999996        0.0000000000000000        1.5527035822850284E-009
 chl           8   1.8600541876811836E-022   3.7517457215081288E-022  0.49578364999999996     
 chl2c           9  0.28700202499999999        2.4803669054600401E-002  0.28700202499999999        0.0000000000000000        4.2553746294626168E-007
 chl           9   1.0767586193579189E-022   3.7517457215081288E-022  0.28700202499999999     
 chl2c          10  0.39094662499999999        2.5387016219684602E-002  0.39094662499999999        0.0000000000000000        5.3736229063219520E-016
 chl          10   1.4667323276817929E-022   3.7517457215081288E-022  0.39094662499999999     
 chl2c          11  0.49737575000000001        2.1820572217820047E-002  0.49737575000000001        0.0000000000000000        5.3790071485015646E-016
 chl          11   1.8660273420443968E-022   3.7517457215081288E-022  0.49737575000000001     
 chl2c          12  0.30768942500000002        4.5290941298723353E-002  0.30768942500000002        0.0000000000000000        1.3450041228392970E-009
 chl          12   1.1543724837970463E-022   3.7517457215081288E-022  0.30768942500000002     
 chl2c          13  0.75666275000000005        3.7935816987997487E-002  0.75666275000000005        0.0000000000000000        1.0344253628447596E-005
 chl          13   1.3138351904024200E-019   1.7363550543520478E-019  0.75666275000000005     
 chl2c          14  0.39804095000000000        4.6856526101924839E-002  0.39804095000000000        0.0000000000000000        2.9899330727239150E-018
 chl          14   1.4933484311475309E-022   3.7517457215081288E-022  0.39804095000000000     
 chl2c          15  0.25607262500000000        2.0954299823745293E-002  0.25607262500000000        0.0000000000000000        5.3942473164300353E-016
 chl          15   9.6071937523910544E-023   3.7517457215081288E-022  0.25607262500000000     
 chl2c          16  0.71433214999999994        3.7823443882273475E-002  0.71433214999999994        0.0000000000000000        1.0670181907600829E-005
 chl          16   1.2403342391389385E-019   1.7363550543524308E-019  0.71433214999999994     
 chl2c          17  0.62580860000000005        3.7542254757581245E-002  0.62580860000000005        0.0000000000000000        8.1690814514559082E-016
 chl          17   1.0866259256672187E-019   1.7363550543524308E-019  0.62580860000000005     
 chl2c          18  0.47925950000000000        2.5694475239060960E-002  0.47925950000000000        0.0000000000000000        5.3854552975066341E-016
 chl          18   1.7980597786171250E-022   3.7517457215081288E-022  0.47925950000000000     
 chl2c          19  0.63367130000000005        3.7570220750293731E-002  0.63367130000000005        0.0000000000000000        7.8626430686830464E-006
 chl          19   1.1002783645530756E-019   1.7363550543524308E-019  0.63367130000000005     
 chl2c          20  0.50678202500000002        3.7020645196759419E-002  0.50678202500000002        0.0000000000000000        8.6646890951245987E-006
 chl          20   8.7995353056351584E-020   1.7363550543520478E-019  0.50678202500000002     
 chl2c          21  0.71973185000000006        3.7838475073783531E-002  0.71973185000000006        0.0000000000000000        1.1498629085849836E-005
 chl          21   1.2497100355256499E-019   1.7363550543520478E-019  0.71973185000000006     
 chl2c          22  0.64616892500000001        3.7613353106285476E-002  0.64616892500000001        0.0000000000000000        8.1690814514559082E-016
 chl          22   1.1219786788892269E-019   1.7363550543524308E-019  0.64616892500000001     
 chl2c          23  0.41564179999999995        3.2286562315070731E-002  0.41564179999999995        0.0000000000000000        3.2644138319180699E-009
 chl          23   1.5593823448299372E-022   3.7517457215081288E-022  0.41564179999999995     
 chl2c          24  0.57597492500000003        3.7348402796863071E-002  0.57597492500000003        0.0000000000000000        9.1114239939347267E-016
 chl          24   1.0000969722037917E-019   1.7363550543520478E-019  0.57597492500000003     
 chl2c          25  0.31406487500000002        4.5426679235459781E-002  0.31406487500000002        0.0000000000000000        2.4838858195580041E-009
 chl          25   1.1782915510572353E-022   3.7517457215081288E-022  0.31406487500000002     
 chl2c          26  0.49427735000000000        4.7955660680174553E-002  0.49427735000000000        0.0000000000000000        1.6475391673464968E-019
 chl          26   1.8544029331008758E-022   3.7517457215081288E-022  0.49427735000000000     
 chl2c          27  0.30964730000000001        4.5333133499525620E-002  0.30964730000000001        0.0000000000000000        2.9640393498765424E-018
 chl          27   1.1617179329515441E-022   3.7517457215081288E-022  0.30964730000000001     
 chl2c          28  0.28776342500000002        3.1209236063453518E-002  0.28776342500000002        0.0000000000000000        2.9456094434014379E-018
 chl          28   1.0796151985502754E-022   3.7517457215081288E-022  0.28776342500000002     
 chl2c          29  0.68676297499999994        3.7743217595736761E-002  0.68676297499999994        0.0000000000000000        9.1973294344706925E-016
 chl          29   1.1924643627830990E-019   1.7363550543520478E-019  0.68676297499999994     
 chl2c          30  0.38930277499999999        2.5380056985171612E-002  0.38930277499999999        0.0000000000000000        5.3984257087327902E-016
 chl          30   1.4605650204774917E-022   3.7517457215081288E-022  0.38930277499999999     
 chl2c          31  0.63559385000000002        3.7576959810037038E-002  0.63559385000000002        0.0000000000000000        9.2292280147047864E-016
 chl          31   1.1036165939625772E-019   1.7363550543520478E-019  0.63559385000000002     
 chl2c          32  0.24722667500000001        2.0893126428578448E-002  0.24722667500000001        0.0000000000000000        5.4005740825488547E-016
 chl          32   9.2753162017393066E-023   3.7517457215081288E-022  0.24722667500000001     
 chl2c          33  0.60343137499999999        3.7458922634011876E-002  0.60343137499999999        0.0000000000000000        7.7238712769533071E-006
 chl          33   1.0477711179358559E-019   1.7363550543520478E-019  0.60343137499999999     
 chl2c          34  0.38241020000000003        2.5350269098008315E-002  0.38241020000000003        0.0000000000000000        5.3352998254180176E-016
 chl          34   1.4347058317110680E-022   3.7517457215081288E-022  0.38241020000000003     
 chl2c          35  0.49574644999999995        2.5740370148566064E-002  0.49574644999999995        0.0000000000000000        5.3470202529204777E-016
 chl          35   1.8599146227403433E-022   3.7517457215081288E-022  0.49574644999999995     
 chl2c          36  0.69587337500000002        3.7770393924465726E-002  0.69587337500000002        0.0000000000000000        8.1690814514559082E-016
 chl          36   1.2082832518705346E-019   1.7363550543524308E-019  0.69587337500000002     
 chl2c          37  0.33194060000000003        2.1353674699533250E-002  0.33194060000000003        0.0000000000000000        5.3302243432543980E-016
 chl          37   1.2453567258448414E-022   3.7517457215081288E-022  0.33194060000000003     
 chl2c          38  0.38455722500000000        2.1543295686358745E-002  0.38455722500000000        0.0000000000000000        5.4011758604174746E-016
 chl          38   1.4427609235687888E-022   3.7517457215081288E-022  0.38455722500000000     
 chl2c          39  0.47091117500000002        2.5670077108751441E-002  0.47091117500000002        0.0000000000000000        5.3692921480156004E-016
 chl          39   1.7667389860166157E-022   3.7517457215081288E-022  0.47091117500000002     
 chl2c          40  0.66875547499999999        3.7687445774703773E-002  0.66875547499999999        0.0000000000000000        1.0663620998150654E-005
 chl          40   1.1611969491421107E-019   1.7363550543524308E-019  0.66875547499999999     
 chl2c          41  0.44304987499999998        2.5582381488167241E-002  0.44304987499999998        0.0000000000000000        7.2846038985771522E-006
 chl          41   1.6622104729459612E-022   3.7517457215081288E-022  0.44304987499999998     
 chl2c          42  0.76234377499999995        3.7949995630725070E-002  0.76234377499999995        0.0000000000000000        1.2278072252937731E-005
 chl          42   1.3236994668750701E-019   1.7363550543520478E-019  0.76234377499999995     
 chl2c          43  0.29539925000000000        2.1185090152268007E-002  0.29539925000000000        0.0000000000000000        6.0497048900493393E-006
 chl          43   1.1082628723242102E-022   3.7517457215081288E-022  0.29539925000000000     
 chl2c          44  0.62417262500000004        3.7536352708156646E-002  0.62417262500000004        0.0000000000000000        7.6862894908523466E-006
 chl          44   1.0837852922069354E-019   1.7363550543520478E-019  0.62417262500000004     
 chl2c          45  0.37662252499999999        4.6544927192009838E-002  0.37662252499999999        0.0000000000000000        2.1943620162084307E-019
 chl          45   1.4129919467923382E-022   3.7517457215081288E-022  0.37662252499999999     
 chl2c          46  0.51876034999999998        3.7083195475449568E-002  0.51876034999999998        0.0000000000000000        9.2288353191468224E-016
 chl          46   9.0075215571993731E-020   1.7363550543520478E-019  0.51876034999999998     
 chl2c          47  0.61962282499999999        3.7519784612651236E-002  0.61962282499999999        0.0000000000000000        9.2351620168765526E-016
 chl          47   1.0758852239806444E-019   1.7363550543520478E-019  0.61962282499999999     
 chl2c          48  0.71424949999999998        3.7823212136301673E-002  0.71424949999999998        0.0000000000000000        1.1546552225395111E-005
 chl          48   1.2401907293934229E-019   1.7363550543520478E-019  0.71424949999999998     
 chl2c          49  0.53276120000000005        3.7152990741888416E-002  0.53276120000000005        0.0000000000000000        9.1848385023302831E-016
 chl          49   9.2506260238266222E-020   1.7363550543520478E-019  0.53276120000000005     
 chl2c          50  0.38132569999999999        2.1533072915600981E-002  0.38132569999999999        0.0000000000000000        5.3583143786727008E-016
 chl          50   1.4306370634760921E-022   3.7517457215081288E-022  0.38132569999999999     
 chl2c          51  0.22275920000000002        2.0700971146093840E-002  0.22275920000000002        0.0000000000000000        5.4090335259724097E-016
 chl          51   8.3573587552657362E-023   3.7517457215081288E-022  0.22275920000000002     
 chl2c          52  0.63698869999999996        3.7581825176985564E-002  0.63698869999999996        0.0000000000000000        9.9355288666550194E-006
 chl          52   1.1060385488103842E-019   1.7363550543524308E-019  0.63698869999999996     
 chl2c          53  0.75269794999999995        3.7925801262726190E-002  0.75269794999999995        0.0000000000000000        1.1037375534398215E-005
 chl          53   1.3069508898832131E-019   1.7363550543524308E-019  0.75269794999999995     
 chl2c          54  0.51861124999999997        3.7082433371327092E-002  0.51861124999999997        0.0000000000000000        9.1163560608955611E-016
 chl          54   9.0049326518133340E-020   1.7363550543520478E-019  0.51861124999999997     
 chl2c          55  0.57808280000000001        3.7357235588660491E-002  0.57808280000000001        0.0000000000000000        9.2510026961659638E-016
 chl          55   1.0037569916139839E-019   1.7363550543520478E-019  0.57808280000000001     
 chl2c          56  0.61626080000000005        3.7507394187257688E-002  0.61626080000000005        0.0000000000000000        8.1690814514559082E-016
 chl          56   1.0700475548792726E-019   1.7363550543524308E-019  0.61626080000000005     
 chl2c          57  0.68163462500000005        3.7727617852646313E-002  0.68163462500000005        0.0000000000000000        9.2579791548962166E-016
 chl          57   1.1835597263401127E-019   1.7363550543520478E-019  0.68163462500000005     
 chl2c          58  0.69416802499999997        3.7765358178394853E-002  0.69416802499999997        0.0000000000000000        9.1533337172895187E-006
 chl          58   1.2053221587785944E-019   1.7363550543524308E-019  0.69416802499999997     
 chl2c          59  0.53705127500000005        3.7173699120809672E-002  0.53705127500000005        0.0000000000000000        1.2712209910173370E-005
 chl          59   9.3251169579246158E-020   1.7363550543520478E-019  0.53705127500000005     
 chl2c          60  0.64452155000000000        3.7607757740906807E-002  0.64452155000000000        0.0000000000000000        1.1065521697181704E-005
 chl          60   1.1191182509813162E-019   1.7363550543520478E-019  0.64452155000000000     
 chl2c          61  0.70794139999999994        3.7805373434125003E-002  0.70794139999999994        0.0000000000000000        9.2041732913971579E-016
 chl          61   1.2292376280750647E-019   1.7363550543520478E-019  0.70794139999999994     
 chl2c          62  0.76481592499999995        3.7956103087269030E-002  0.76481592499999995        0.0000000000000000        1.1499645833736225E-005
 chl          62   1.3279919970226865E-019   1.7363550543520478E-019  0.76481592499999995     
 chl2c          63  0.72597904999999996        3.7855601011927406E-002  0.72597904999999996        0.0000000000000000        4.7559484602561492E-006
 chl          63   1.2605573928214760E-019   1.7363550543524308E-019  0.72597904999999996     
 chl2c          64  0.48435739999999999        2.5708982294816416E-002  0.48435739999999999        0.0000000000000000        5.3023406336604582E-016
 chl          64   1.8171858031308014E-022   3.7517457215081288E-022  0.48435739999999999     
 chl2c          65  0.76379975000000000        3.7953597170552002E-002  0.76379975000000000        0.0000000000000000        1.1204601522220913E-005
 chl          65   1.3262275564256231E-019   1.7363550543524308E-019  0.76379975000000000     
 chl2c          66  0.35213202499999996        3.1840477731474713E-002  0.35213202499999996        0.0000000000000000        1.8045767049041346E-019
 chl          66   1.3211098181997433E-022   3.7517457215081288E-022  0.35213202499999996     
 chl2c          67  0.75736760000000003        3.7937587124568600E-002  0.75736760000000003        0.0000000000000000        9.1821136960818830E-016
 chl          67   1.3150590602624800E-019   1.7363550543520478E-019  0.75736760000000003     
 chl2c          68  0.72590779999999999        3.7855407263856986E-002  0.72590779999999999        0.0000000000000000        9.8024481926020387E-006
 chl          68   1.2604336775238534E-019   1.7363550543524308E-019  0.72590779999999999     
 chl2c          69  0.45524217500000003        2.1732330561541505E-002  0.45524217500000003        0.0000000000000000        5.3409847159225945E-016
 chl          69   1.7079528823063049E-022   3.7517457215081288E-022  0.45524217500000003     
 chl2c          70  0.48694062500000002        3.2658010878182209E-002  0.48694062500000002        0.0000000000000000        3.6423003449703278E-018
 chl          70   1.8268774064722442E-022   3.7517457215081288E-022  0.48694062500000002     
 chl2c          71  0.23986107500000001        4.3481058864416305E-002  0.23986107500000001        0.0000000000000000        2.7396308186794760E-009
 chl          71   8.9989776188759043E-023   3.7517457215081288E-022  0.23986107500000001     
 chl2c          72  0.62790522500000001        3.7549776402781669E-002  0.62790522500000001        0.0000000000000000        9.2213425616361758E-006
 chl          72   1.0902664110830502E-019   1.7363550543524308E-019  0.62790522500000001     
 chl2c          73  0.35362212500000001        3.1852614277819484E-002  0.35362212500000001        0.0000000000000000        2.2663021584965581E-019
 chl          73   1.3267002944993628E-022   3.7517457215081288E-022  0.35362212500000001     
 chl2c          74  0.64719590000000005        3.7616827685877569E-002  0.64719590000000005        0.0000000000000000        1.1274315235830367E-005
 chl          74   1.1237618721209225E-019   1.7363550543520478E-019  0.64719590000000005     
 chl2c          75  0.71554212500000003        3.7826830779512356E-002  0.71554212500000003        0.0000000000000000        8.1690814514559082E-016
 chl          75   1.2424351853458289E-019   1.7363550543524308E-019  0.71554212500000003     
 chl2c          76  0.55513977500000000        3.7257729557919804E-002  0.55513977500000000        0.0000000000000000        8.1690814514559082E-016
 chl          76   9.6391975419332122E-020   1.7363550543524308E-019  0.55513977500000000     
 chl2c          77  0.52973029999999999        3.7138172437479272E-002  0.52973029999999999        0.0000000000000000        1.2072792635393190E-005
 chl          77   9.1979988384842652E-020   1.7363550543520478E-019  0.52973029999999999     
 chl2c          78  0.45117492500000000        4.7515248899399322E-002  0.45117492500000000        0.0000000000000000        3.7598388717441260E-018
 chl          78   1.6926935945205008E-022   3.7517457215081288E-022  0.45117492500000000     
 prod   8.1909324520520489E-010   0.0000000000000000        10.000000000000000     
 dcdom   1.2581529763925922E-012  -9.9542551902481679E-013
 chl2c           1  0.60826437499999997        3.7477407714772232E-002  0.60826437499999997        0.0000000000000000        1.0666688021941804E-005
 chl           1   5.7858585251716044E-024   9.5120785680923765E-024  0.60826437499999997     
 chl2c           2  0.48302390000000001        3.2640259920490348E-002  0.48302390000000001        0.0000000000000000        1.5886870157407772E-019
 chl           2   1.1443116334275988E-025   2.3690579978083874E-025  0.48302390000000001     
 chl2c           3  0.75128689999999998        3.7922212503796585E-002  0.75128689999999998        0.0000000000000000        8.5758721369409255E-016
 chl           3   7.1463000199785608E-024   9.5120785680923765E-024  0.75128689999999998     
 chl2c           4  0.77318742499999993        3.7976509103863923E-002  0.77318742499999993        0.0000000000000000        7.5664437597571358E-007
 chl           4   7.3546195344610305E-024   9.5120785680923765E-024  0.77318742499999993     
 chl2c           5  0.48489679999999996        2.5710500362372445E-002  0.48489679999999996        0.0000000000000000        5.3790862742663756E-016
 chl           5   1.1487486421516940E-025   2.3690579978083874E-025  0.48489679999999996     
 chl2c           6  0.29222855000000003        3.1261039902252048E-002  0.29222855000000003        0.0000000000000000        4.6959187260454062E-008
 chl           6   6.9230638356544824E-026   2.3690579978083874E-025  0.29222855000000003     
 chl2c           7  0.22770740000000000        4.3064391842467263E-002  0.22770740000000000        0.0000000000000000        1.5502272815183003E-019
 chl           7   5.3945203713015365E-026   2.3690579978083874E-025  0.22770740000000000     
 chl2c           8  0.49578364999999996        4.7969800906495587E-002  0.49578364999999996        0.0000000000000000        3.7718338477377894E-010
 chl           8   1.1745402212151342E-025   2.3690579978083874E-025  0.49578364999999996     
 chl2c           9  0.28700202499999999        2.4803669054600401E-002  0.28700202499999999        0.0000000000000000        5.4051952342816047E-016
 chl           9   6.7992444271345268E-026   2.3690579978083874E-025  0.28700202499999999     
 chl2c          10  0.39094662499999999        2.5387016219684602E-002  0.39094662499999999        0.0000000000000000        5.4052858616227875E-016
 chl          10   9.2617522867244638E-026   2.3690579978083874E-025  0.39094662499999999     
 chl2c          11  0.49737575000000001        2.1820572217820047E-002  0.49737575000000001        0.0000000000000000        5.4094661582300523E-016
 chl          11   1.1783119984534450E-025   2.3690579978083874E-025  0.49737575000000001     
 chl2c          12  0.30768942500000002        4.5290941298723353E-002  0.30768942500000002        0.0000000000000000        1.8613531612845945E-009
 chl          12   7.2893409313731398E-026   2.3690579978083874E-025  0.30768942500000002     
 chl2c          13  0.75666275000000005        3.7935816987997487E-002  0.75666275000000005        0.0000000000000000        1.1337292484565732E-005
 chl          13   7.1974355275478932E-024   9.5120785680911246E-024  0.75666275000000005     
 chl2c          14  0.39804095000000000        4.6856526101924839E-002  0.39804095000000000        0.0000000000000000        2.8024242814634956E-018
 chl          14   9.4298209605274847E-026   2.3690579978083874E-025  0.39804095000000000     
 chl2c          15  0.25607262500000000        2.0954299823745293E-002  0.25607262500000000        0.0000000000000000        5.4212922226083112E-016
 chl          15   6.0665090027603796E-026   2.3690579978083874E-025  0.25607262500000000     
 chl2c          16  0.71433214999999994        3.7823443882273475E-002  0.71433214999999994        0.0000000000000000        1.0906897951062678E-005
 chl          16   6.7947835345143480E-024   9.5120785680923765E-024  0.71433214999999994     
 chl2c          17  0.62580860000000005        3.7542254757581245E-002  0.62580860000000005        0.0000000000000000        8.5758721369409255E-016
 chl          17   5.9527405717878950E-024   9.5120785680923765E-024  0.62580860000000005     
 chl2c          18  0.47925950000000000        2.5694475239060960E-002  0.47925950000000000        0.0000000000000000        5.4144708644729666E-016
 chl          18   1.1353935515006489E-025   2.3690579978083874E-025  0.47925950000000000     
 chl2c          19  0.63367130000000005        3.7570220750293731E-002  0.63367130000000005        0.0000000000000000        3.9968325675984826E-006
 chl          19   6.0275311919452349E-024   9.5120785680923765E-024  0.63367130000000005     
 chl2c          20  0.50678202500000002        3.7020645196759419E-002  0.50678202500000002        0.0000000000000000        1.0659155549099809E-005
 chl          20   4.8205504386963206E-024   9.5120785680911246E-024  0.50678202500000002     
 chl2c          21  0.71973185000000006        3.7838475073783531E-002  0.71973185000000006        0.0000000000000000        8.4739667918277469E-006
 chl          21   6.8461459051575770E-024   9.5120785680911246E-024  0.71973185000000006     
 chl2c          22  0.64616892500000001        3.7613353106285476E-002  0.64616892500000001        0.0000000000000000        8.5758721369409255E-016
 chl          22   6.1464095828597903E-024   9.5120785680923765E-024  0.64616892500000001     
 chl2c          23  0.41564179999999995        3.2286562315070731E-002  0.41564179999999995        0.0000000000000000        2.8988404403515739E-009
 chl          23   9.8467953051347405E-026   2.3690579978083874E-025  0.41564179999999995     
 chl2c          24  0.57597492500000003        3.7348402796863071E-002  0.57597492500000003        0.0000000000000000        9.2307943634090686E-016
 chl          24   5.4787187398503929E-024   9.5120785680911246E-024  0.57597492500000003     
 chl2c          25  0.31406487500000002        4.5426679235459781E-002  0.31406487500000002        0.0000000000000000        2.2081052713001120E-009
 chl          25   7.4403790394944145E-026   2.3690579978083874E-025  0.31406487500000002     
 chl2c          26  0.49427735000000000        4.7955660680174553E-002  0.49427735000000000        0.0000000000000000        1.5675859624663544E-019
 chl          26   1.1709717091530354E-025   2.3690579978083874E-025  0.49427735000000000     
 chl2c          27  0.30964730000000001        4.5333133499525620E-002  0.30964730000000001        0.0000000000000000        2.7781469432571704E-018
 chl          27   7.3357241256477313E-026   2.3690579978083874E-025  0.30964730000000001     
 chl2c          28  0.28776342500000002        3.1209236063453518E-002  0.28776342500000002        0.0000000000000000        2.7608675814166093E-018
 chl          28   6.8172824347298413E-026   2.3690579978083874E-025  0.28776342500000002     
 chl2c          29  0.68676297499999994        3.7743217595736761E-002  0.68676297499999994        0.0000000000000000        9.2982225473581618E-016
 chl          29   6.5325433758560003E-024   9.5120785680911246E-024  0.68676297499999994     
 chl2c          30  0.38930277499999999        2.5380056985171612E-002  0.38930277499999999        0.0000000000000000        5.4245331652044968E-016
 chl          30   9.2228085268274911E-026   2.3690579978083874E-025  0.38930277499999999     
 chl2c          31  0.63559385000000002        3.7576959810037038E-002  0.63559385000000002        0.0000000000000000        9.3231911750226373E-016
 chl          31   6.0458186385955255E-024   9.5120785680911246E-024  0.63559385000000002     
 chl2c          32  0.24722667500000001        2.0893126428578448E-002  0.24722667500000001        0.0000000000000000        5.4261993420910565E-016
 chl          32   5.8569433168032494E-026   2.3690579978083874E-025  0.24722667500000001     
 chl2c          33  0.60343137499999999        3.7458922634011876E-002  0.60343137499999999        0.0000000000000000        3.0685584290516373E-006
 chl          33   5.7398866494512585E-024   9.5120785680911246E-024  0.60343137499999999     
 chl2c          34  0.38241020000000003        2.5350269098008315E-002  0.38241020000000003        0.0000000000000000        5.3754910935590689E-016
 chl          34   9.0595194275350502E-026   2.3690579978083874E-025  0.38241020000000003     
 chl2c          35  0.49574644999999995        2.5740370148566064E-002  0.49574644999999995        0.0000000000000000        5.3846114413446464E-016
 chl          35   1.1744520922576157E-025   2.3690579978083874E-025  0.49574644999999995     
 chl2c          36  0.69587337500000002        3.7770393924465726E-002  0.69587337500000002        0.0000000000000000        8.5758721369409255E-016
 chl          36   6.6192022164436096E-024   9.5120785680923765E-024  0.69587337500000002     
 chl2c          37  0.33194060000000003        2.1353674699533250E-002  0.33194060000000003        0.0000000000000000        5.3715391894238133E-016
 chl          37   7.8638653322731484E-026   2.3690579978083874E-025  0.33194060000000003     
 chl2c          38  0.38455722500000000        2.1543295686358745E-002  0.38455722500000000        0.0000000000000000        5.4266660305897157E-016
 chl          38   9.1103836950124950E-026   2.3690579978083874E-025  0.38455722500000000     
 chl2c          39  0.47091117500000002        2.5670077108751441E-002  0.47091117500000002        0.0000000000000000        5.4019225435987891E-016
 chl          39   1.1156158853910953E-025   2.3690579978083874E-025  0.47091117500000002     
 chl2c          40  0.66875547499999999        3.7687445774703773E-002  0.66875547499999999        0.0000000000000000        1.0905662717626305E-005
 chl          40   6.3612546210419370E-024   9.5120785680923765E-024  0.66875547499999999     
 chl2c          41  0.44304987499999998        2.5582381488167241E-002  0.44304987499999998        0.0000000000000000        6.8321044465094933E-006
 chl          41   1.0496108497967562E-025   2.3690579978083874E-025  0.44304987499999998     
 chl2c          42  0.76234377499999995        3.7949995630725070E-002  0.76234377499999995        0.0000000000000000        1.1865100690685706E-005
 chl          42   7.2514738836951818E-024   9.5120785680911246E-024  0.76234377499999995     
 chl2c          43  0.29539925000000000        2.1185090152268007E-002  0.29539925000000000        0.0000000000000000        2.8440671945745452E-006
 chl          43   6.9981795575909929E-026   2.3690579978083874E-025  0.29539925000000000     
 chl2c          44  0.62417262500000004        3.7536352708156646E-002  0.62417262500000004        0.0000000000000000        1.0127319716106323E-005
 chl          44   5.9371790490516792E-024   9.5120785680911246E-024  0.62417262500000004     
 chl2c          45  0.37662252499999999        4.6544927192009838E-002  0.37662252499999999        0.0000000000000000        2.0878821752110108E-019
 chl          45   8.9224060500603932E-026   2.3690579978083874E-025  0.37662252499999999     
 chl2c          46  0.51876034999999998        3.7083195475449568E-002  0.51876034999999998        0.0000000000000000        9.3228840156414483E-016
 chl          46   4.9344892072104505E-024   9.5120785680911246E-024  0.51876034999999998     
 chl2c          47  0.61962282499999999        3.7519784612651236E-002  0.61962282499999999        0.0000000000000000        1.2196028771745190E-006
 chl          47   5.8939009939825772E-024   9.5120785680911246E-024  0.61962282499999999     
 chl2c          48  0.71424949999999998        3.7823212136301673E-002  0.71424949999999998        0.0000000000000000        1.1738122330015680E-005
 chl          48   6.7939973612198009E-024   9.5120785680911246E-024  0.71424949999999998     
 chl2c          49  0.53276120000000005        3.7152990741888416E-002  0.53276120000000005        0.0000000000000000        1.6411667640755009E-006
 chl          49   5.0676663924305098E-024   9.5120785680911246E-024  0.53276120000000005     
 chl2c          50  0.38132569999999999        2.1533072915600981E-002  0.38132569999999999        0.0000000000000000        5.3933930778513193E-016
 chl          50   9.0338269935488173E-026   2.3690579978083874E-025  0.38132569999999999     
 chl2c          51  0.22275920000000002        2.0700971146093840E-002  0.22275920000000002        0.0000000000000000        5.4327590294926010E-016
 chl          51   5.2772946434539817E-026   2.3690579978083874E-025  0.22275920000000002     
 chl2c          52  0.63698869999999996        3.7581825176985564E-002  0.63698869999999996        0.0000000000000000        1.0723833705628939E-005
 chl          52   6.0590865613870243E-024   9.5120785680923765E-024  0.63698869999999996     
 chl2c          53  0.75269794999999995        3.7925801262726190E-002  0.75269794999999995        0.0000000000000000        1.0957836650634815E-005
 chl          53   7.1597220384420672E-024   9.5120785680923765E-024  0.75269794999999995     
 chl2c          54  0.51861124999999997        3.7082433371327092E-002  0.51861124999999997        0.0000000000000000        1.9472575878110950E-006
 chl          54   4.9330709562959478E-024   9.5120785680911246E-024  0.51861124999999997     
 chl2c          55  0.57808280000000001        3.7357235588660491E-002  0.57808280000000001        0.0000000000000000        9.3402143144901765E-016
 chl          55   5.4987690124621081E-024   9.5120785680911246E-024  0.57808280000000001     
 chl2c          56  0.61626080000000005        3.7507394187257688E-002  0.61626080000000005        0.0000000000000000        8.5758721369409255E-016
 chl          56   5.8619211480354630E-024   9.5120785680923765E-024  0.61626080000000005     
 chl2c          57  0.68163462500000005        3.7727617852646313E-002  0.68163462500000005        0.0000000000000000        9.3456648501457141E-016
 chl          57   6.4837621077313314E-024   9.5120785680911246E-024  0.68163462500000005     
 chl2c          58  0.69416802499999997        3.7765358178394853E-002  0.69416802499999997        0.0000000000000000        5.8576810098182557E-006
 chl          58   6.6029807932575127E-024   9.5120785680923765E-024  0.69416802499999997     
 chl2c          59  0.53705127500000005        3.7173699120809672E-002  0.53705127500000005        0.0000000000000000        1.1751432427599526E-005
 chl          59   5.1084739228935136E-024   9.5120785680911246E-024  0.53705127500000005     
 chl2c          60  0.64452155000000000        3.7607757740906807E-002  0.64452155000000000        0.0000000000000000        7.7747736608497894E-006
 chl          60   6.1307396224278724E-024   9.5120785680911246E-024  0.64452155000000000     
 chl2c          61  0.70794139999999994        3.7805373434125003E-002  0.70794139999999994        0.0000000000000000        9.3035826860649783E-016
 chl          61   6.7339942184044257E-024   9.5120785680911246E-024  0.70794139999999994     
 chl2c          62  0.76481592499999995        3.7956103087269030E-002  0.76481592499999995        0.0000000000000000        1.1647592966740465E-005
 chl          62   7.2749891687272891E-024   9.5120785680911246E-024  0.76481592499999995     
 chl2c          63  0.72597904999999996        3.7855601011927406E-002  0.72597904999999996        0.0000000000000000        7.5754799906735140E-007
 chl          63   6.9055697623890631E-024   9.5120785680923765E-024  0.72597904999999996     
 chl2c          64  0.48435739999999999        2.5708982294816416E-002  0.48435739999999999        0.0000000000000000        5.3498014842272502E-016
 chl          64   1.1474707722676763E-025   2.3690579978083874E-025  0.48435739999999999     
 chl2c          65  0.76379975000000000        3.7953597170552002E-002  0.76379975000000000        0.0000000000000000        1.0787969847060755E-005
 chl          65   7.2653232322893155E-024   9.5120785680923765E-024  0.76379975000000000     
 chl2c          66  0.35213202499999996        3.1840477731474713E-002  0.35213202499999996        0.0000000000000000        1.7170050215150879E-019
 chl          66   8.3422119011071295E-026   2.3690579978083874E-025  0.35213202499999996     
 chl2c          67  0.75736760000000003        3.7937587124568600E-002  0.75736760000000003        0.0000000000000000        1.8596679797636004E-006
 chl          67   7.2041401161266120E-024   9.5120785680911246E-024  0.75736760000000003     
 chl2c          68  0.72590779999999999        3.7855407263856986E-002  0.72590779999999999        0.0000000000000000        6.9822355250268660E-006
 chl          68   6.9048920267910866E-024   9.5120785680923765E-024  0.72590779999999999     
 chl2c          69  0.45524217500000003        2.1732330561541505E-002  0.45524217500000003        0.0000000000000000        5.3799157823792761E-016
 chl          69   1.0784951156234355E-025   2.3690579978083874E-025  0.45524217500000003     
 chl2c          70  0.48694062500000002        3.2658010878182209E-002  0.48694062500000002        0.0000000000000000        3.4141115271808519E-018
 chl          70   1.1535905821140648E-025   2.3690579978083874E-025  0.48694062500000002     
 chl2c          71  0.23986107500000001        4.3481058864416305E-002  0.23986107500000001        0.0000000000000000        2.1535821754294438E-009
 chl          71   5.6824479809166740E-026   2.3690579978083874E-025  0.23986107500000001     
 chl2c          72  0.62790522500000001        3.7549776402781669E-002  0.62790522500000001        0.0000000000000000        1.0483377470954192E-005
 chl          72   5.9726838335157213E-024   9.5120785680923765E-024  0.62790522500000001     
 chl2c          73  0.35362212500000001        3.1852614277819484E-002  0.35362212500000001        0.0000000000000000        2.1563328400763026E-019
 chl          73   8.3775132343324733E-026   2.3690579978083874E-025  0.35362212500000001     
 chl2c          74  0.64719590000000005        3.7616827685877569E-002  0.64719590000000005        0.0000000000000000        8.0065640590089047E-006
 chl          74   6.1561782497464471E-024   9.5120785680911246E-024  0.64719590000000005     
 chl2c          75  0.71554212500000003        3.7826830779512356E-002  0.71554212500000003        0.0000000000000000        8.5758721369409255E-016
 chl          75   6.8062929117797763E-024   9.5120785680923765E-024  0.71554212500000003     
 chl2c          76  0.55513977500000000        3.7257729557919804E-002  0.55513977500000000        0.0000000000000000        8.5758721369409255E-016
 chl          76   5.2805331560731240E-024   9.5120785680923765E-024  0.55513977500000000     
 chl2c          77  0.52973029999999999        3.7138172437479272E-002  0.52973029999999999        0.0000000000000000        1.0036351872834499E-005
 chl          77   5.0388362334984820E-024   9.5120785680911246E-024  0.52973029999999999     
 chl2c          78  0.45117492500000000        4.7515248899399322E-002  0.45117492500000000        0.0000000000000000        3.5243294777587517E-018
 chl          78   1.0688595644818492E-025   2.3690579978083874E-025  0.45117492500000000     
 prod   7.7933227123320554E-010   0.0000000000000000        10.000000000000000     
 dcdom   1.2484698394163066E-012  -8.3861515210900592E-016
 chl2c           1  0.60826437499999997        3.7477407714772232E-002  0.60826437499999997        0.0000000000000000        9.0751802070749707E-006
 chl           1   7.2126945523315355E-021   1.1857828353553560E-020  0.60826437499999997     
 chl2c           2  0.48302390000000001        3.2640259920490348E-002  0.48302390000000001        0.0000000000000000        1.5672070871250671E-019
 chl           2   5.7304078490409622E-021   1.1863611405234735E-020  0.48302390000000001     
 chl2c           3  0.75128689999999998        3.7922212503796585E-002  0.75128689999999998        0.0000000000000000        8.8068957506553245E-016
 chl           3   8.9086311044733586E-021   1.1857828353553560E-020  0.75128689999999998     
 chl2c           4  0.77318742499999993        3.7976509103863923E-002  0.77318742499999993        0.0000000000000000        8.8068957506553245E-016
 chl           4   9.1683237707760655E-021   1.1857828353553560E-020  0.77318742499999993     
 chl2c           5  0.48489679999999996        2.5710500362372445E-002  0.48489679999999996        0.0000000000000000        5.3956925970166449E-016
 chl           5   5.7526272068418260E-021   1.1863611405234735E-020  0.48489679999999996     
 chl2c           6  0.29222855000000003        3.1261039902252048E-002  0.29222855000000003        0.0000000000000000        4.1764551423924502E-008
 chl           6   3.4668859587152091E-021   1.1863611405234735E-020  0.29222855000000003     
 chl2c           7  0.22770740000000000        4.3064391842467263E-002  0.22770740000000000        0.0000000000000000        1.5292672054914328E-019
 chl           7   2.7014321076963479E-021   1.1863611405234735E-020  0.22770740000000000     
 chl2c           8  0.49578364999999996        4.7969800906495587E-002  0.49578364999999996        0.0000000000000000        1.6249272127719650E-019
 chl           8   5.8817845646689054E-021   1.1863611405234735E-020  0.49578364999999996     
 chl2c           9  0.28700202499999999        2.4803669054600401E-002  0.28700202499999999        0.0000000000000000        5.4184050196879049E-016
 chl           9   3.4048804971154646E-021   1.1863611405234735E-020  0.28700202499999999     
 chl2c          10  0.39094662499999999        2.5387016219684602E-002  0.39094662499999999        0.0000000000000000        5.4184836569771120E-016
 chl          10   4.6380388391880271E-021   1.1863611405234735E-020  0.39094662499999999     
 chl2c          11  0.49737575000000001        2.1820572217820047E-002  0.49737575000000001        0.0000000000000000        5.4221090629517858E-016
 chl          11   5.9006726203871800E-021   1.1863611405234735E-020  0.49737575000000001     
 chl2c          12  0.30768942500000002        4.5290941298723353E-002  0.30768942500000002        0.0000000000000000        1.8980563552666482E-009
 chl          12   3.6503077717001179E-021   1.1863611405234735E-020  0.30768942500000002     
 chl2c          13  0.75666275000000005        3.7935816987997487E-002  0.75666275000000005        0.0000000000000000        1.1043105565696808E-005
 chl          13   8.9723770110278071E-021   1.1857828353553557E-020  0.75666275000000005     
 chl2c          14  0.39804095000000000        4.6856526101924839E-002  0.39804095000000000        0.0000000000000000        2.6781624304057895E-018
 chl          14   4.7222031541704685E-021   1.1863611405234735E-020  0.39804095000000000     
 chl2c          15  0.25607262500000000        2.0954299823745293E-002  0.25607262500000000        0.0000000000000000        5.4323432145209025E-016
 chl          15   3.0379461145183971E-021   1.1863611405234735E-020  0.25607262500000000     
 chl2c          16  0.71433214999999994        3.7823443882273475E-002  0.71433214999999994        0.0000000000000000        1.0477518127108049E-005
 chl          16   8.4704280221248745E-021   1.1857828353553560E-020  0.71433214999999994     
 chl2c          17  0.62580860000000005        3.7542254757581245E-002  0.62580860000000005        0.0000000000000000        2.8551419251287849E-006
 chl          17   7.4207309609776587E-021   1.1857828353553560E-020  0.62580860000000005     
 chl2c          18  0.47925950000000000        2.5694475239060960E-002  0.47925950000000000        0.0000000000000000        5.4264443736234256E-016
 chl          18   5.6857484702670965E-021   1.1863611405234735E-020  0.47925950000000000     
 chl2c          19  0.63367130000000005        3.7570220750293731E-002  0.63367130000000005        0.0000000000000000        1.3751738977337778E-007
 chl          19   7.5139655079731444E-021   1.1857828353553560E-020  0.63367130000000005     
 chl2c          20  0.50678202500000002        3.7020645196759419E-002  0.50678202500000002        0.0000000000000000        1.0917105835006358E-005
 chl          20   6.0093342651162882E-021   1.1857828353553557E-020  0.50678202500000002     
 chl2c          21  0.71973185000000006        3.7838475073783531E-002  0.71973185000000006        0.0000000000000000        4.1877193109297911E-006
 chl          21   8.5344567378855570E-021   1.1857828353553557E-020  0.71973185000000006     
 chl2c          22  0.64616892500000001        3.7613353106285476E-002  0.64616892500000001        0.0000000000000000        8.8068957506553245E-016
 chl          22   7.6621602000502245E-021   1.1857828353553560E-020  0.64616892500000001     
 chl2c          23  0.41564179999999995        3.2286562315070731E-002  0.41564179999999995        0.0000000000000000        2.6238538774181035E-009
 chl          23   4.9310127989722943E-021   1.1863611405234735E-020  0.41564179999999995     
 chl2c          24  0.57597492500000003        3.7348402796863071E-002  0.57597492500000003        0.0000000000000000        9.2824305330624041E-016
 chl          24   6.8298117966008836E-021   1.1857828353553557E-020  0.57597492500000003     
 chl2c          25  0.31406487500000002        4.5426679235459781E-002  0.31406487500000002        0.0000000000000000        2.0059835854702206E-009
 chl          25   3.7259436330336217E-021   1.1863611405234735E-020  0.31406487500000002     
 chl2c          26  0.49427735000000000        4.7955660680174553E-002  0.49427735000000000        0.0000000000000000        3.2292495743477714E-010
 chl          26   5.8639144068092009E-021   1.1863611405234735E-020  0.49427735000000000     
 chl2c          27  0.30964730000000001        4.5333133499525620E-002  0.30964730000000001        0.0000000000000000        2.6549565684255316E-018
 chl          27   3.6735352398801418E-021   1.1863611405234735E-020  0.30964730000000001     
 chl2c          28  0.28776342500000002        3.1209236063453518E-002  0.28776342500000002        0.0000000000000000        1.3074340050611364E-008
 chl          28   3.4139134508394101E-021   1.1863611405234735E-020  0.28776342500000002     
 chl2c          29  0.68676297499999994        3.7743217595736761E-002  0.68676297499999994        0.0000000000000000        9.3416836998089581E-016
 chl          29   8.1435174771257928E-021   1.1857828353553557E-020  0.68676297499999994     
 chl2c          30  0.38930277499999999        2.5380056985171612E-002  0.38930277499999999        0.0000000000000000        5.4351411864194418E-016
 chl          30   4.6185368415795314E-021   1.1863611405234735E-020  0.38930277499999999     
 chl2c          31  0.63559385000000002        3.7576959810037038E-002  0.63559385000000002        0.0000000000000000        9.3635830407143657E-016
 chl          31   7.5367627758742662E-021   1.1857828353553557E-020  0.63559385000000002     
 chl2c          32  0.24722667500000001        2.0893126428578448E-002  0.24722667500000001        0.0000000000000000        5.4365783293740211E-016
 chl          32   2.9330012012082613E-021   1.1863611405234735E-020  0.24722667500000001     
 chl2c          33  0.60343137499999999        3.7458922634011876E-002  0.60343137499999999        0.0000000000000000        9.2987407353666432E-016
 chl          33   7.1553856678988093E-021   1.1857828353553557E-020  0.60343137499999999     
 chl2c          34  0.38241020000000003        2.5350269098008315E-002  0.38241020000000003        0.0000000000000000        5.3925575712583133E-016
 chl          34   4.5367660101980965E-021   1.1863611405234735E-020  0.38241020000000003     
 chl2c          35  0.49574644999999995        2.5740370148566064E-002  0.49574644999999995        0.0000000000000000        5.4005074267918762E-016
 chl          35   5.8813432383246309E-021   1.1863611405234735E-020  0.49574644999999995     
 chl2c          36  0.69587337500000002        3.7770393924465726E-002  0.69587337500000002        0.0000000000000000        8.8068957506553245E-016
 chl          36   8.2515470365580088E-021   1.1857828353553560E-020  0.69587337500000002     
 chl2c          37  0.33194060000000003        2.1353674699533250E-002  0.33194060000000003        0.0000000000000000        5.3891097253979767E-016
 chl          37   3.9380142880204611E-021   1.1863611405234735E-020  0.33194060000000003     
 chl2c          38  0.38455722500000000        2.1543295686358745E-002  0.38455722500000000        0.0000000000000000        5.4369806997434693E-016
 chl          38   4.5622374804754202E-021   1.1863611405234735E-020  0.38455722500000000     
 chl2c          39  0.47091117500000002        2.5670077108751441E-002  0.47091117500000002        0.0000000000000000        5.4155642372157421E-016
 chl          39   5.5867071865824906E-021   1.1863611405234735E-020  0.47091117500000002     
 chl2c          40  0.66875547499999999        3.7687445774703773E-002  0.66875547499999999        0.0000000000000000        1.0477501721337133E-005
 chl          40   7.9299876330491797E-021   1.1857828353553560E-020  0.66875547499999999     
 chl2c          41  0.44304987499999998        2.5582381488167241E-002  0.44304987499999998        0.0000000000000000        6.0413258137048216E-006
 chl          41   5.2561715501378231E-021   1.1863611405234735E-020  0.44304987499999998     
 chl2c          42  0.76234377499999995        3.7949995630725070E-002  0.76234377499999995        0.0000000000000000        1.1112913498179140E-005
 chl          42   9.0397416303500524E-021   1.1857828353553557E-020  0.76234377499999995     
 chl2c          43  0.29539925000000000        2.1185090152268007E-002  0.29539925000000000        0.0000000000000000        5.4365991415964626E-016
 chl          43   3.5045019113977868E-021   1.1863611405234735E-020  0.29539925000000000     
 chl2c          44  0.62417262500000004        3.7536352708156646E-002  0.62417262500000004        0.0000000000000000        1.0707337720585087E-005
 chl          44   7.4013318502369529E-021   1.1857828353553557E-020  0.62417262500000004     
 chl2c          45  0.37662252499999999        4.6544927192009838E-002  0.37662252499999999        0.0000000000000000        2.0596553744779712E-019
 chl          45   4.4681032830583039E-021   1.1863611405234735E-020  0.37662252499999999     
 chl2c          46  0.51876034999999998        3.7083195475449568E-002  0.51876034999999998        0.0000000000000000        9.3633137911247401E-016
 chl          46   6.1513711869293673E-021   1.1857828353553557E-020  0.51876034999999998     
 chl2c          47  0.61962282499999999        3.7519784612651236E-002  0.61962282499999999        0.0000000000000000        4.9866718554423292E-006
 chl          47   7.3473811027939537E-021   1.1857828353553557E-020  0.61962282499999999     
 chl2c          48  0.71424949999999998        3.7823212136301673E-002  0.71424949999999998        0.0000000000000000        1.1126343520683299E-005
 chl          48   8.4694479726114509E-021   1.1857828353553557E-020  0.71424949999999998     
 chl2c          49  0.53276120000000005        3.7152990741888416E-002  0.53276120000000005        0.0000000000000000        5.4086766431067817E-006
 chl          49   6.3173908630332177E-021   1.1857828353553557E-020  0.53276120000000005     
 chl2c          50  0.38132569999999999        2.1533072915600981E-002  0.38132569999999999        0.0000000000000000        5.4081513993162801E-016
 chl          50   4.5238999236291191E-021   1.1863611405234735E-020  0.38132569999999999     
 chl2c          51  0.22275920000000002        2.0700971146093840E-002  0.22275920000000002        0.0000000000000000        5.4422266956795972E-016
 chl          51   2.6427285857409657E-021   1.1863611405234735E-020  0.22275920000000002     
 chl2c          52  0.63698869999999996        3.7581825176985564E-002  0.63698869999999996        0.0000000000000000        1.0466345143102045E-005
 chl          52   7.5533026677532223E-021   1.1857828353553560E-020  0.63698869999999996     
 chl2c          53  0.75269794999999995        3.7925801262726190E-002  0.75269794999999995        0.0000000000000000        1.0477595425814847E-005
 chl          53   8.9253630931716397E-021   1.1857828353553560E-020  0.75269794999999995     
 chl2c          54  0.51861124999999997        3.7082433371327092E-002  0.51861124999999997        0.0000000000000000        5.6910404791081468E-006
 chl          54   6.1496031847218519E-021   1.1857828353553557E-020  0.51861124999999997     
 chl2c          55  0.57808280000000001        3.7357235588660491E-002  0.57808280000000001        0.0000000000000000        9.3784989211016453E-016
 chl          55   6.8548066165416306E-021   1.1857828353553557E-020  0.57808280000000001     
 chl2c          56  0.61626080000000005        3.7507394187257688E-002  0.61626080000000005        0.0000000000000000        8.8068957506553245E-016
 chl          56   7.3075147874236005E-021   1.1857828353553560E-020  0.61626080000000005     
 chl2c          57  0.68163462500000005        3.7727617852646313E-002  0.68163462500000005        0.0000000000000000        9.3832720629779562E-016
 chl          57   8.0827063830888466E-021   1.1857828353553557E-020  0.68163462500000005     
 chl2c          58  0.69416802499999997        3.7765358178394853E-002  0.69416802499999997        0.0000000000000000        1.7354298044432990E-006
 chl          58   8.2313252889752763E-021   1.1857828353553560E-020  0.69416802499999997     
 chl2c          59  0.53705127500000005        3.7173699120809672E-002  0.53705127500000005        0.0000000000000000        1.0041423500640348E-005
 chl          59   6.3682618360070894E-021   1.1857828353553557E-020  0.53705127500000005     
 chl2c          60  0.64452155000000000        3.7607757740906807E-002  0.64452155000000000        0.0000000000000000        3.3838186494058244E-006
 chl          60   7.6426259100662875E-021   1.1857828353553557E-020  0.64452155000000000     
 chl2c          61  0.70794139999999994        3.7805373434125003E-002  0.70794139999999994        0.0000000000000000        9.3463869998223700E-016
 chl          61   8.3946476055743995E-021   1.1857828353553557E-020  0.70794139999999994     
 chl2c          62  0.76481592499999995        3.7956103087269030E-002  0.76481592499999995        0.0000000000000000        1.1032579633155943E-005
 chl          62   9.0690559607142912E-021   1.1857828353553557E-020  0.76481592499999995     
 chl2c          63  0.72597904999999996        3.7855601011927406E-002  0.72597904999999996        0.0000000000000000        8.8068957506553245E-016
 chl          63   8.6085349631758773E-021   1.1857828353553560E-020  0.72597904999999996     
 chl2c          64  0.48435739999999999        2.5708982294816416E-002  0.48435739999999999        0.0000000000000000        5.3701155923446062E-016
 chl          64   5.7462279748498424E-021   1.1863611405234735E-020  0.48435739999999999     
 chl2c          65  0.76379975000000000        3.7953597170552002E-002  0.76379975000000000        0.0000000000000000        9.4679896485784637E-006
 chl          65   9.0570063319871216E-021   1.1857828353553560E-020  0.76379975000000000     
 chl2c          66  0.35213202499999996        3.1840477731474713E-002  0.35213202499999996        0.0000000000000000        1.6937906957056730E-019
 chl          66   4.1775575079384021E-021   1.1863611405234735E-020  0.35213202499999996     
 chl2c          67  0.75736760000000003        3.7937587124568600E-002  0.75736760000000003        0.0000000000000000        5.6236655725600591E-006
 chl          67   8.9807350013428092E-021   1.1857828353553557E-020  0.75736760000000003     
 chl2c          68  0.72590779999999999        3.7855407263856986E-002  0.72590779999999999        0.0000000000000000        2.9243914464838536E-006
 chl          68   8.6076900929056865E-021   1.1857828353553560E-020  0.72590779999999999     
 chl2c          69  0.45524217500000003        2.1732330561541505E-002  0.45524217500000003        0.0000000000000000        5.3964157099052219E-016
 chl          69   5.4008162594738675E-021   1.1863611405234735E-020  0.45524217500000003     
 chl2c          70  0.48694062500000002        3.2658010878182209E-002  0.48694062500000002        0.0000000000000000        1.6490188054870637E-008
 chl          70   5.7768743524221303E-021   1.1863611405234735E-020  0.48694062500000002     
 chl2c          71  0.23986107500000001        4.3481058864416305E-002  0.23986107500000001        0.0000000000000000        1.1835992856518387E-009
 chl          71   2.8456185850418643E-021   1.1863611405234735E-020  0.23986107500000001     
 chl2c          72  0.62790522500000001        3.7549776402781669E-002  0.62790522500000001        0.0000000000000000        1.0432869705125907E-005
 chl          72   7.4455923803494286E-021   1.1857828353553560E-020  0.62790522500000001     
 chl2c          73  0.35362212500000001        3.1852614277819484E-002  0.35362212500000001        0.0000000000000000        2.1271809884492158E-019
 chl          73   4.1952354752933428E-021   1.1863611405234735E-020  0.35362212500000001     
 chl2c          74  0.64719590000000005        3.7616827685877569E-002  0.64719590000000005        0.0000000000000000        3.6041230214087056E-006
 chl          74   7.6743378933236133E-021   1.1857828353553557E-020  0.64719590000000005     
 chl2c          75  0.71554212500000003        3.7826830779512356E-002  0.71554212500000003        0.0000000000000000        8.8068957506553245E-016
 chl          75   8.4847756979869664E-021   1.1857828353553560E-020  0.71554212500000003     
 chl2c          76  0.55513977500000000        3.7257729557919804E-002  0.55513977500000000        0.0000000000000000        8.8068957506553245E-016
 chl          76   6.5827521641803439E-021   1.1857828353553560E-020  0.55513977500000000     
 chl2c          77  0.52973029999999999        3.7138172437479272E-002  0.52973029999999999        0.0000000000000000        6.5420792632983727E-006
 chl          77   6.2814509710764318E-021   1.1857828353553557E-020  0.52973029999999999     
 chl2c          78  0.45117492500000000        4.7515248899399322E-002  0.45117492500000000        0.0000000000000000        3.3682464002381843E-018
 chl          78   5.3525639859859260E-021   1.1863611405234735E-020  0.45117492500000000     
 prod   7.6879227006913758E-010   0.0000000000000000        10.000000000000000     
 dcdom   1.2326978491048704E-012  -7.7147962920296268E-016
 chl2c           1  0.60826437499999997        3.7477407714772232E-002  0.60826437499999997        0.0000000000000000        3.6255152288671843E-006
 chl           1   9.9766660111471797E-016   1.6401858174165108E-015  0.60826437499999997     
 chl2c           2  0.48302390000000001        3.2640259920490348E-002  0.48302390000000001        0.0000000000000000        1.4410803076402879E-019
 chl           2   7.9258052366540902E-016   1.6408722708450017E-015  0.48302390000000001     
 chl2c           3  0.75128689999999998        3.7922212503796585E-002  0.75128689999999998        0.0000000000000000        1.2838850732402667E-006
 chl           3   1.2322501181908164E-015   1.6401858174165108E-015  0.75128689999999998     
 chl2c           4  0.77318742499999993        3.7976509103863923E-002  0.77318742499999993        0.0000000000000000        9.1266971586387620E-016
 chl           4   1.2681710486897920E-015   1.6401858174165108E-015  0.77318742499999993     
 chl2c           5  0.48489679999999996        2.5710500362372445E-002  0.48489679999999996        0.0000000000000000        5.3956925970147851E-016
 chl           5   7.9565371334147462E-016   1.6408722708450017E-015  0.48489679999999996     
 chl2c           6  0.29222855000000003        3.1261039902252048E-002  0.29222855000000003        0.0000000000000000        2.8030235065820871E-008
 chl           6   4.7950972444424219E-016   1.6408722708450017E-015  0.29222855000000003     
 chl2c           7  0.22770740000000000        4.3064391842467263E-002  0.22770740000000000        0.0000000000000000        1.4061929988754702E-019
 chl           7   3.7363875852621118E-016   1.6408722708450017E-015  0.22770740000000000     
 chl2c           8  0.49578364999999996        4.7969800906495587E-002  0.49578364999999996        0.0000000000000000        1.4941564526434991E-019
 chl           8   8.1351764362332352E-016   1.6408722708450017E-015  0.49578364999999996     
 chl2c           9  0.28700202499999999        2.4803669054600401E-002  0.28700202499999999        0.0000000000000000        5.4184050196864021E-016
 chl           9   4.7093366449886395E-016   1.6408722708450017E-015  0.28700202499999999     
 chl2c          10  0.39094662499999999        2.5387016219684602E-002  0.39094662499999999        0.0000000000000000        5.4184836569756112E-016
 chl          10   6.4149347634293931E-016   1.6408722708450017E-015  0.39094662499999999     
 chl2c          11  0.49737575000000001        2.1820572217820047E-002  0.49737575000000001        0.0000000000000000        7.0012295563622871E-007
 chl          11   8.1613007636573585E-016   1.6408722708450017E-015  0.49737575000000001     
 chl2c          12  0.30768942500000002        4.5290941298723353E-002  0.30768942500000002        0.0000000000000000        1.5572340947992655E-009
 chl          12   5.0487904551474289E-016   1.6408722708450017E-015  0.30768942500000002     
 chl2c          13  0.75666275000000005        3.7935816987997487E-002  0.75666275000000005        0.0000000000000000        9.8177020193771048E-006
 chl          13   1.2410675111173741E-015   1.6401858174165096E-015  0.75666275000000005     
 chl2c          14  0.39804095000000000        4.6856526101924839E-002  0.39804095000000000        0.0000000000000000        2.3267279605044153E-018
 chl          14   6.5313435751580180E-016   1.6408722708450017E-015  0.39804095000000000     
 chl2c          15  0.25607262500000000        2.0954299823745293E-002  0.25607262500000000        0.0000000000000000        5.4323432145196226E-016
 chl          15   4.2018246968499054E-016   1.6408722708450017E-015  0.25607262500000000     
 chl2c          16  0.71433214999999994        3.7823443882273475E-002  0.71433214999999994        0.0000000000000000        9.5538651358472095E-006
 chl          16   1.1716374613546435E-015   1.6401858174165108E-015  0.71433214999999994     
 chl2c          17  0.62580860000000005        3.7542254757581245E-002  0.62580860000000005        0.0000000000000000        7.6691344527840069E-006
 chl          17   1.0264423901372822E-015   1.6401858174165108E-015  0.62580860000000005     
 chl2c          18  0.47925950000000000        2.5694475239060960E-002  0.47925950000000000        0.0000000000000000        5.4264443736220500E-016
 chl          18   7.8640362408904015E-016   1.6408722708450017E-015  0.47925950000000000     
 chl2c          19  0.63367130000000005        3.7570220750293731E-002  0.63367130000000005        0.0000000000000000        9.1266971586387620E-016
 chl          19   1.0393386791638831E-015   1.6401858174165108E-015  0.63367130000000005     
 chl2c          20  0.50678202500000002        3.7020645196759419E-002  0.50678202500000002        0.0000000000000000        9.8509845966247196E-006
 chl          20   8.3121668992661910E-016   1.6401858174165096E-015  0.50678202500000002     
 chl2c          21  0.71973185000000006        3.7838475073783531E-002  0.71973185000000006        0.0000000000000000        9.3329170702985420E-016
 chl          21   1.1804939727129467E-015   1.6401858174165096E-015  0.71973185000000006     
 chl2c          22  0.64616892500000001        3.7613353106285476E-002  0.64616892500000001        0.0000000000000000        9.1266971586387620E-016
 chl          22   1.0598371064402731E-015   1.6401858174165108E-015  0.64616892500000001     
 chl2c          23  0.41564179999999995        3.2286562315070731E-002  0.41564179999999995        0.0000000000000000        1.3700480746936808E-009
 chl          23   6.8201510422410400E-016   1.6408722708450017E-015  0.41564179999999995     
 chl2c          24  0.57597492500000003        3.7348402796863071E-002  0.57597492500000003        0.0000000000000000        9.2824305330566731E-016
 chl          24   9.4470590317253791E-016   1.6401858174165096E-015  0.57597492500000003     
 chl2c          25  0.31406487500000002        4.5426679235459781E-002  0.31406487500000002        0.0000000000000000        1.1051053274396957E-009
 chl          25   5.1534034463390163E-016   1.6408722708450017E-015  0.31406487500000002     
 chl2c          26  0.49427735000000000        4.7955660680174553E-002  0.49427735000000000        0.0000000000000000        1.2886433021613067E-009
 chl          26   8.1104599772174975E-016   1.6408722708450017E-015  0.49427735000000000     
 chl2c          27  0.30964730000000001        4.5333133499525620E-002  0.30964730000000001        0.0000000000000000        1.6227476585553661E-008
 chl          27   5.0809166831202357E-016   1.6408722708450017E-015  0.30964730000000001     
 chl2c          28  0.28776342500000002        3.1209236063453518E-002  0.28776342500000002        0.0000000000000000        2.2849236327495023E-008
 chl          28   4.7218302464588533E-016   1.6408722708450017E-015  0.28776342500000002     
 chl2c          29  0.68676297499999994        3.7743217595736761E-002  0.68676297499999994        0.0000000000000000        9.3416836998041342E-016
 chl          29   1.1264188915217690E-015   1.6401858174165096E-015  0.68676297499999994     
 chl2c          30  0.38930277499999999        2.5380056985171612E-002  0.38930277499999999        0.0000000000000000        3.0475818293340138E-006
 chl          30   6.3879612846051078E-016   1.6408722708450017E-015  0.38930277499999999     
 chl2c          31  0.63559385000000002        3.7576959810037038E-002  0.63559385000000002        0.0000000000000000        9.3635830407098770E-016
 chl          31   1.0424920184071565E-015   1.6401858174165096E-015  0.63559385000000002     
 chl2c          32  0.24722667500000001        2.0893126428578448E-002  0.24722667500000001        0.0000000000000000        5.4365783293728072E-016
 chl          32   4.0566739562070921E-016   1.6408722708450017E-015  0.24722667500000001     
 chl2c          33  0.60343137499999999        3.7458922634011876E-002  0.60343137499999999        0.0000000000000000        9.2987407353611606E-016
 chl          33   9.8973958305914329E-016   1.6401858174165096E-015  0.60343137499999999     
 chl2c          34  0.38241020000000003        2.5350269098008315E-002  0.38241020000000003        0.0000000000000000        5.3925575712564032E-016
 chl          34   6.2748629326829130E-016   1.6408722708450017E-015  0.38241020000000003     
 chl2c          35  0.49574644999999995        2.5740370148566064E-002  0.49574644999999995        0.0000000000000000        5.4005074267900904E-016
 chl          35   8.1345660317484805E-016   1.6408722708450017E-015  0.49574644999999995     
 chl2c          36  0.69587337500000002        3.7770393924465726E-002  0.69587337500000002        0.0000000000000000        9.1266971586387620E-016
 chl          36   1.1413616403927612E-015   1.6401858174165108E-015  0.69587337500000002     
 chl2c          37  0.33194060000000003        2.1353674699533250E-002  0.33194060000000003        0.0000000000000000        5.3891097253960115E-016
 chl          37   5.4467212610765246E-016   1.6408722708450017E-015  0.33194060000000003     
 chl2c          38  0.38455722500000000        2.1543295686358745E-002  0.38455722500000000        0.0000000000000000        5.4369806997422623E-016
 chl          38   6.3100928705560231E-016   1.6408722708450017E-015  0.38455722500000000     
 chl2c          39  0.47091117500000002        2.5670077108751441E-002  0.47091117500000002        0.0000000000000000        5.4155642372141949E-016
 chl          39   7.7270508908853806E-016   1.6408722708450017E-015  0.47091117500000002     
 chl2c          40  0.66875547499999999        3.7687445774703773E-002  0.66875547499999999        0.0000000000000000        9.5550820666835227E-006
 chl          40   1.0968832454146419E-015   1.6401858174165108E-015  0.66875547499999999     
 chl2c          41  0.44304987499999998        2.5582381488167241E-002  0.44304987499999998        0.0000000000000000        2.2002585869551252E-006
 chl          41   7.2698825448884409E-016   1.6408722708450017E-015  0.44304987499999998     
 chl2c          42  0.76234377499999995        3.7949995630725070E-002  0.76234377499999995        0.0000000000000000        9.7003495418781133E-006
 chl          42   1.2503854477507625E-015   1.6401858174165096E-015  0.76234377499999995     
 chl2c          43  0.29539925000000000        2.1185090152268007E-002  0.29539925000000000        0.0000000000000000        5.4365991415952497E-016
 chl          43   4.8471243815341043E-016   1.6408722708450017E-015  0.29539925000000000     
 chl2c          44  0.62417262500000004        3.7536352708156646E-002  0.62417262500000004        0.0000000000000000        9.7800277968166397E-006
 chl          44   1.0237590871446336E-015   1.6401858174165096E-015  0.62417262500000004     
 chl2c          45  0.37662252499999999        4.6544927192009838E-002  0.37662252499999999        0.0000000000000000        1.8939106225244201E-019
 chl          45   6.1798945784812837E-016   1.6408722708450017E-015  0.37662252499999999     
 chl2c          46  0.51876034999999998        3.7083195475449568E-002  0.51876034999999998        0.0000000000000000        9.3633137911202495E-016
 chl          46   8.5086336870802458E-016   1.6401858174165096E-015  0.51876034999999998     
 chl2c          47  0.61962282499999999        3.7519784612651236E-002  0.61962282499999999        0.0000000000000000        8.7501402465343931E-006
 chl          47   1.0162965697125519E-015   1.6401858174165096E-015  0.61962282499999999     
 chl2c          48  0.71424949999999998        3.7823212136301673E-002  0.71424949999999998        0.0000000000000000        9.8376168169586656E-006
 chl          48   1.1715018999968332E-015   1.6401858174165096E-015  0.71424949999999998     
 chl2c          49  0.53276120000000005        3.7152990741888416E-002  0.53276120000000005        0.0000000000000000        8.8748894275898994E-006
 chl          49   8.7382736430980067E-016   1.6401858174165096E-015  0.53276120000000005     
 chl2c          50  0.38132569999999999        2.1533072915600981E-002  0.38132569999999999        0.0000000000000000        5.4081513993146166E-016
 chl          50   6.2570676729055985E-016   1.6408722708450017E-015  0.38132569999999999     
 chl2c          51  0.22275920000000002        2.0700971146093840E-002  0.22275920000000002        0.0000000000000000        5.4422266956784731E-016
 chl          51   3.6551939435561594E-016   1.6408722708450017E-015  0.22275920000000002     
 chl2c          52  0.63698869999999996        3.7581825176985564E-002  0.63698869999999996        0.0000000000000000        9.6057602281317557E-006
 chl          52   1.0447798315945806E-015   1.6401858174165108E-015  0.63698869999999996     
 chl2c          53  0.75269794999999995        3.7925801262726190E-002  0.75269794999999995        0.0000000000000000        9.3717564158465753E-006
 chl          53   1.2345645023884820E-015   1.6401858174165108E-015  0.75269794999999995     
 chl2c          54  0.51861124999999997        3.7082433371327092E-002  0.51861124999999997        0.0000000000000000        8.9324743872815681E-006
 chl          54   8.5061881700264777E-016   1.6401858174165096E-015  0.51861124999999997     
 chl2c          55  0.57808280000000001        3.7357235588660491E-002  0.57808280000000001        0.0000000000000000        9.3784989210973874E-016
 chl          55   9.4816320985242466E-016   1.6401858174165096E-015  0.57808280000000001     
 chl2c          56  0.61626080000000005        3.7507394187257688E-002  0.61626080000000005        0.0000000000000000        9.1266971586387620E-016
 chl          56   1.0107822239897530E-015   1.6401858174165108E-015  0.61626080000000005     
 chl2c          57  0.68163462500000005        3.7727617852646313E-002  0.68163462500000005        0.0000000000000000        9.3832720629737732E-016
 chl          57   1.1180074445850212E-015   1.6401858174165096E-015  0.68163462500000005     
 chl2c          58  0.69416802499999997        3.7765358178394853E-002  0.69416802499999997        0.0000000000000000        9.1266971586387620E-016
 chl          58   1.1385645495090298E-015   1.6401858174165108E-015  0.69416802499999997     
 chl2c          59  0.53705127500000005        3.7173699120809672E-002  0.53705127500000005        0.0000000000000000        4.5105996644083742E-006
 chl          59   8.8086388448045381E-016   1.6401858174165096E-015  0.53705127500000005     
 chl2c          60  0.64452155000000000        3.7607757740906807E-002  0.64452155000000000        0.0000000000000000        9.2749715373732547E-016
 chl          60   1.0571351053293058E-015   1.6401858174165096E-015  0.64452155000000000     
 chl2c          61  0.70794139999999994        3.7805373434125003E-002  0.70794139999999994        0.0000000000000000        1.3883122548998284E-006
 chl          61   1.1611554438419880E-015   1.6401858174165096E-015  0.70794139999999994     
 chl2c          62  0.76481592499999995        3.7956103087269030E-002  0.76481592499999995        0.0000000000000000        9.7487206612361687E-006
 chl          62   1.2544402331192888E-015   1.6401858174165096E-015  0.76481592499999995     
 chl2c          63  0.72597904999999996        3.7855601011927406E-002  0.72597904999999996        0.0000000000000000        9.1266971586387620E-016
 chl          63   1.1907405415515119E-015   1.6401858174165108E-015  0.72597904999999996     
 chl2c          64  0.48435739999999999        2.5708982294816416E-002  0.48435739999999999        0.0000000000000000        5.3701155923423451E-016
 chl          64   7.9476862683858080E-016   1.6408722708450017E-015  0.48435739999999999     
 chl2c          65  0.76379975000000000        3.7953597170552002E-002  0.76379975000000000        0.0000000000000000        4.5086535356411712E-006
 chl          65   1.2527735172962767E-015   1.6401858174165108E-015  0.76379975000000000     
 chl2c          66  0.35213202499999996        3.1840477731474713E-002  0.35213202499999996        0.0000000000000000        1.5574795123637075E-019
 chl          66   5.7780367549899887E-016   1.6408722708450017E-015  0.35213202499999996     
 chl2c          67  0.75736760000000003        3.7937587124568600E-002  0.75736760000000003        0.0000000000000000        8.9453003163705689E-006
 chl          67   1.2422235960907801E-015   1.6401858174165096E-015  0.75736760000000003     
 chl2c          68  0.72590779999999999        3.7855407263856986E-002  0.72590779999999999        0.0000000000000000        9.1266971586387620E-016
 chl          68   1.1906236783120210E-015   1.6401858174165108E-015  0.72590779999999999     
 chl2c          69  0.45524217500000003        2.1732330561541505E-002  0.45524217500000003        0.0000000000000000        5.3964157099033721E-016
 chl          69   7.4699426147666770E-016   1.6408722708450017E-015  0.45524217500000003     
 chl2c          70  0.48694062500000002        3.2658010878182209E-002  0.48694062500000002        0.0000000000000000        2.8320664954529873E-008
 chl          70   7.9900736911043441E-016   1.6408722708450017E-015  0.48694062500000002     
 chl2c          71  0.23986107500000001        4.3481058864416305E-002  0.23986107500000001        0.0000000000000000        1.7417178543629135E-019
 chl          71   3.9358138682257327E-016   1.6408722708450017E-015  0.23986107500000001     
 chl2c          72  0.62790522500000001        3.7549776402781669E-002  0.62790522500000001        0.0000000000000000        9.6116602106378481E-006
 chl          72   1.0298812447267231E-015   1.6401858174165108E-015  0.62790522500000001     
 chl2c          73  0.35362212500000001        3.1852614277819484E-002  0.35362212500000001        0.0000000000000000        1.9560042390972807E-019
 chl          73   5.8024873926978503E-016   1.6408722708450017E-015  0.35362212500000001     
 chl2c          74  0.64719590000000005        3.7616827685877569E-002  0.64719590000000005        0.0000000000000000        9.3433072554151752E-016
 chl          74   1.0615215362701136E-015   1.6401858174165096E-015  0.64719590000000005     
 chl2c          75  0.71554212500000003        3.7826830779512356E-002  0.71554212500000003        0.0000000000000000        9.1266971586387620E-016
 chl          75   1.1736220451890722E-015   1.6401858174165108E-015  0.71554212500000003     
 chl2c          76  0.55513977500000000        3.7257729557919804E-002  0.55513977500000000        0.0000000000000000        9.1266971586387620E-016
 chl          76   9.1053238563879293E-016   1.6401858174165108E-015  0.55513977500000000     
 chl2c          77  0.52973029999999999        3.7138172437479272E-002  0.52973029999999999        0.0000000000000000        9.2657655550498733E-016
 chl          77   8.6885612511579284E-016   1.6401858174165096E-015  0.52973029999999999     
 chl2c          78  0.45117492500000000        4.7515248899399322E-002  0.45117492500000000        0.0000000000000000        2.9267042184044839E-018
 chl          78   7.4032042373307330E-016   1.6408722708450017E-015  0.45117492500000000     
 prod   7.0690469055154688E-010   0.0000000000000000        10.000000000000000     
 dcdom   1.1366352805263474E-012  -7.1110311461989831E-016
 chl2c           1  0.60826437499999997        3.7477407714772232E-002  0.60826437499999997        0.0000000000000000        9.3035872980875687E-016
 chl           1   1.5588618728911200E-010   2.5628031773044739E-010  0.60826437499999997     
 chl2c           2  0.48302390000000001        3.2640259920490348E-002  0.48302390000000001        0.0000000000000000        1.1680266833084620E-019
 chl           2   1.2384132735079440E-010   2.5638757699317656E-010  0.48302390000000001     
 chl2c           3  0.75128689999999998        3.7922212503796585E-002  0.75128689999999998        0.0000000000000000        5.9665321742592433E-006
 chl           3   1.9254004543872285E-010   2.5628031773044739E-010  0.75128689999999998     
 chl2c           4  0.77318742499999993        3.7976509103863923E-002  0.77318742499999993        0.0000000000000000        9.3035872980875687E-016
 chl           4   1.9815271894418644E-010   2.5628031773044739E-010  0.77318742499999993     
 chl2c           5  0.48489679999999996        2.5710500362372445E-002  0.48489679999999996        0.0000000000000000        5.3956925970119748E-016
 chl           5   1.2432151564374493E-010   2.5638757699317656E-010  0.48489679999999996     
 chl2c           6  0.29222855000000003        3.1261039902252048E-002  0.29222855000000003        0.0000000000000000        4.1529320638898984E-009
 chl           6   7.4923769862729355E-011   2.5638757699317656E-010  0.29222855000000003     
 chl2c           7  0.22770740000000000        4.3064391842467263E-002  0.22770740000000000        0.0000000000000000        1.1397483994366677E-019
 chl           7   5.8381348549416050E-011   2.5638757699317656E-010  0.22770740000000000     
 chl2c           8  0.49578364999999996        4.7969800906495587E-002  0.49578364999999996        0.0000000000000000        1.2110482544305570E-019
 chl           8   1.2711276873633308E-010   2.5638757699317656E-010  0.49578364999999996     
 chl2c           9  0.28700202499999999        2.4803669054600401E-002  0.28700202499999999        0.0000000000000000        5.4184050196841361E-016
 chl           9   7.3583753781885076E-011   2.5638757699317656E-010  0.28700202499999999     
 chl2c          10  0.39094662499999999        2.5387016219684602E-002  0.39094662499999999        0.0000000000000000        5.4184836569733472E-016
 chl          10   1.0023385791741003E-010   2.5638757699317656E-010  0.39094662499999999     
 chl2c          11  0.49737575000000001        2.1820572217820047E-002  0.49737575000000001        0.0000000000000000        4.1497154052726778E-006
 chl          11   1.2752096339766394E-010   2.5638757699317656E-010  0.49737575000000001     
 chl2c          12  0.30768942500000002        4.5290941298723353E-002  0.30768942500000002        0.0000000000000000        9.7815080092277190E-010
 chl          12   7.8887746142173726E-011   2.5638757699317656E-010  0.30768942500000002     
 chl2c          13  0.75666275000000005        3.7935816987997487E-002  0.75666275000000005        0.0000000000000000        8.4567224866143330E-006
 chl          13   1.9391776998479379E-010   2.5628031773044697E-010  0.75666275000000005     
 chl2c          14  0.39804095000000000        4.6856526101924839E-002  0.39804095000000000        0.0000000000000000        1.7321776947491619E-018
 chl          14   1.0205275471456214E-010   2.5638757699317656E-010  0.39804095000000000     
 chl2c          15  0.25607262500000000        2.0954299823745293E-002  0.25607262500000000        0.0000000000000000        5.4323432145176899E-016
 chl          15   6.5653839858032330E-011   2.5638757699317656E-010  0.25607262500000000     
 chl2c          16  0.71433214999999994        3.7823443882273475E-002  0.71433214999999994        0.0000000000000000        7.5473494112118043E-006
 chl          16   1.8306927036707360E-010   2.5628031773044739E-010  0.71433214999999994     
 chl2c          17  0.62580860000000005        3.7542254757581245E-002  0.62580860000000005        0.0000000000000000        8.5511385584717030E-006
 chl          17   1.6038242684644646E-010   2.5628031773044739E-010  0.62580860000000005     
 chl2c          18  0.47925950000000000        2.5694475239060960E-002  0.47925950000000000        0.0000000000000000        5.4264443736199753E-016
 chl          18   1.2287618195596129E-010   2.5638757699317656E-010  0.47925950000000000     
 chl2c          19  0.63367130000000005        3.7570220750293731E-002  0.63367130000000005        0.0000000000000000        9.2840687192628296E-016
 chl          19   1.6239748210066567E-010   2.5628031773044739E-010  0.63367130000000005     
 chl2c          20  0.50678202500000002        3.7020645196759419E-002  0.50678202500000002        0.0000000000000000        8.6734689555803872E-006
 chl          20   1.2987825838707933E-010   2.5628031773044697E-010  0.50678202500000002     
 chl2c          21  0.71973185000000006        3.7838475073783531E-002  0.71973185000000006        0.0000000000000000        9.3329170702910577E-016
 chl          21   1.8445310719872242E-010   2.5628031773044697E-010  0.71973185000000006     
 chl2c          22  0.64616892500000001        3.7613353106285476E-002  0.64616892500000001        0.0000000000000000        9.3035872980875687E-016
 chl          22   1.6560037740654162E-010   2.5628031773044739E-010  0.64616892500000001     
 chl2c          23  0.41564179999999995        3.2286562315070731E-002  0.41564179999999995        0.0000000000000000        1.6672343122381196E-019
 chl          23   1.0656539399908248E-010   2.5638757699317656E-010  0.41564179999999995     
 chl2c          24  0.57597492500000003        3.7348402796863071E-002  0.57597492500000003        0.0000000000000000        3.9818983316501214E-006
 chl          24   1.4761103678377038E-010   2.5628031773044697E-010  0.57597492500000003     
 chl2c          25  0.31406487500000002        4.5426679235459781E-002  0.31406487500000002        0.0000000000000000        1.2699109905075918E-019
 chl          25   8.0522332319914880E-011   2.5638757699317656E-010  0.31406487500000002     
 chl2c          26  0.49427735000000000        4.7955660680174553E-002  0.49427735000000000        0.0000000000000000        1.0761706978194605E-009
 chl          26   1.2672657212910829E-010   2.5638757699317656E-010  0.49427735000000000     
 chl2c          27  0.30964730000000001        4.5333133499525620E-002  0.30964730000000001        0.0000000000000000        1.5818114436954175E-008
 chl          27   7.9389720969479243E-011   2.5638757699317656E-010  0.30964730000000001     
 chl2c          28  0.28776342500000002        3.1209236063453518E-002  0.28776342500000002        0.0000000000000000        1.5950401253543066E-008
 chl          28   7.3778967283007692E-011   2.5638757699317656E-010  0.28776342500000002     
 chl2c          29  0.68676297499999994        3.7743217595736761E-002  0.68676297499999994        0.0000000000000000        9.3416836997968511E-016
 chl          29   1.7600383343850700E-010   2.5628031773044697E-010  0.68676297499999994     
 chl2c          30  0.38930277499999999        2.5380056985171612E-002  0.38930277499999999        0.0000000000000000        4.9026667264045305E-006
 chl          30   9.9812395198969787E-011   2.5638757699317656E-010  0.38930277499999999     
 chl2c          31  0.63559385000000002        3.7576959810037038E-002  0.63559385000000002        0.0000000000000000        9.3635830407031047E-016
 chl          31   1.6289019382551805E-010   2.5628031773044697E-010  0.63559385000000002     
 chl2c          32  0.24722667500000001        2.0893126428578448E-002  0.24722667500000001        0.0000000000000000        5.4365783293709781E-016
 chl          32   6.3385848171329546E-011   2.5638757699317656E-010  0.24722667500000001     
 chl2c          33  0.60343137499999999        3.7458922634011876E-002  0.60343137499999999        0.0000000000000000        9.2987407353528874E-016
 chl          33   1.5464758451352050E-010   2.5628031773044697E-010  0.60343137499999999     
 chl2c          34  0.38241020000000003        2.5350269098008315E-002  0.38241020000000003        0.0000000000000000        5.3925575712535199E-016
 chl          34   9.8045224595476049E-011   2.5638757699317656E-010  0.38241020000000003     
 chl2c          35  0.49574644999999995        2.5740370148566064E-002  0.49574644999999995        0.0000000000000000        2.6437598826159737E-006
 chl          35   1.2710323111846895E-010   2.5638757699317656E-010  0.49574644999999995     
 chl2c          36  0.69587337500000002        3.7770393924465726E-002  0.69587337500000002        0.0000000000000000        4.1335630373462410E-006
 chl          36   1.7833864964515876E-010   2.5628031773044739E-010  0.69587337500000002     
 chl2c          37  0.33194060000000003        2.1353674699533250E-002  0.33194060000000003        0.0000000000000000        5.3891097253930464E-016
 chl          37   8.5105446139661225E-011   2.5638757699317656E-010  0.33194060000000003     
 chl2c          38  0.38455722500000000        2.1543295686358745E-002  0.38455722500000000        0.0000000000000000        1.7434235806831713E-006
 chl          38   9.8595695132969817E-011   2.5638757699317656E-010  0.38455722500000000     
 chl2c          39  0.47091117500000002        2.5670077108751441E-002  0.47091117500000002        0.0000000000000000        2.9634059615001415E-007
 chl          39   1.2073577513725975E-010   2.5638757699317656E-010  0.47091117500000002     
 chl2c          40  0.66875547499999999        3.7687445774703773E-002  0.66875547499999999        0.0000000000000000        7.5578894347140247E-006
 chl          40   1.7138886561697626E-010   2.5628031773044739E-010  0.66875547499999999     
 chl2c          41  0.44304987499999998        2.5582381488167241E-002  0.44304987499999998        0.0000000000000000        5.3742518611396510E-016
 chl          41   1.1359248393837974E-010   2.5638757699317656E-010  0.44304987499999998     
 chl2c          42  0.76234377499999995        3.7949995630725070E-002  0.76234377499999995        0.0000000000000000        7.0425572294888353E-006
 chl          42   1.9537370487682837E-010   2.5628031773044697E-010  0.76234377499999995     
 chl2c          43  0.29539925000000000        2.1185090152268007E-002  0.29539925000000000        0.0000000000000000        5.4365991415934205E-016
 chl          43   7.5736697953101608E-011   2.5638757699317656E-010  0.29539925000000000     
 chl2c          44  0.62417262500000004        3.7536352708156646E-002  0.62417262500000004        0.0000000000000000        8.6467126375558727E-006
 chl          44   1.5996315865364715E-010   2.5628031773044697E-010  0.62417262500000004     
 chl2c          45  0.37662252499999999        4.6544927192009838E-002  0.37662252499999999        0.0000000000000000        1.5350793282873051E-019
 chl          45   9.6561336625802054E-011   2.5638757699317656E-010  0.37662252499999999     
 chl2c          46  0.51876034999999998        3.7083195475449568E-002  0.51876034999999998        0.0000000000000000        9.3633137911134712E-016
 chl          46   1.3294806732395786E-010   2.5628031773044697E-010  0.51876034999999998     
 chl2c          47  0.61962282499999999        3.7519784612651236E-002  0.61962282499999999        0.0000000000000000        8.7155166325928367E-006
 chl          47   1.5879713446403713E-010   2.5628031773044697E-010  0.61962282499999999     
 chl2c          48  0.71424949999999998        3.7823212136301673E-002  0.71424949999999998        0.0000000000000000        8.0671736433443246E-006
 chl          48   1.8304808879881288E-010   2.5628031773044697E-010  0.71424949999999998     
 chl2c          49  0.53276120000000005        3.7152990741888416E-002  0.53276120000000005        0.0000000000000000        8.6958316007743339E-006
 chl          49   1.3653620961045423E-010   2.5628031773044697E-010  0.53276120000000005     
 chl2c          50  0.38132569999999999        2.1533072915600981E-002  0.38132569999999999        0.0000000000000000        5.4081513993121041E-016
 chl          50   9.7767172268226947E-011   2.5638757699317656E-010  0.38132569999999999     
 chl2c          51  0.22275920000000002        2.0700971146093840E-002  0.22275920000000002        0.0000000000000000        2.0641574216662360E-006
 chl          51   5.7112691540938419E-011   2.5638757699317656E-010  0.22275920000000002     
 chl2c          52  0.63698869999999996        3.7581825176985564E-002  0.63698869999999996        0.0000000000000000        8.1997134774022188E-006
 chl          52   1.6324766642670462E-010   2.5628031773044739E-010  0.63698869999999996     
 chl2c          53  0.75269794999999995        3.7925801262726190E-002  0.75269794999999995        0.0000000000000000        6.4626220133781467E-006
 chl          53   1.9290166978105638E-010   2.5628031773044739E-010  0.75269794999999995     
 chl2c          54  0.51861124999999997        3.7082433371327092E-002  0.51861124999999997        0.0000000000000000        8.6587812894934189E-006
 chl          54   1.3290985592858425E-010   2.5628031773044697E-010  0.51861124999999997     
 chl2c          55  0.57808280000000001        3.7357235588660491E-002  0.57808280000000001        0.0000000000000000        9.3784989210909661E-016
 chl          55   1.4815124365850644E-010   2.5628031773044697E-010  0.57808280000000001     
 chl2c          56  0.61626080000000005        3.7507394187257688E-002  0.61626080000000005        0.0000000000000000        3.0163548152260762E-006
 chl          56   1.5793551362881972E-010   2.5628031773044739E-010  0.61626080000000005     
 chl2c          57  0.68163462500000005        3.7727617852646313E-002  0.68163462500000005        0.0000000000000000        9.3832720629674624E-016
 chl          57   1.7468953827107409E-010   2.5628031773044697E-010  0.68163462500000005     
 chl2c          58  0.69416802499999997        3.7765358178394853E-002  0.69416802499999997        0.0000000000000000        9.3035872980875687E-016
 chl          58   1.7790160200531712E-010   2.5628031773044739E-010  0.69416802499999997     
 chl2c          59  0.53705127500000005        3.7173699120809672E-002  0.53705127500000005        0.0000000000000000        9.3909778722341178E-016
 chl          59   1.3763567139454167E-010   2.5628031773044697E-010  0.53705127500000005     
 chl2c          60  0.64452155000000000        3.7607757740906807E-002  0.64452155000000000        0.0000000000000000        9.2749715373644353E-016
 chl          60   1.6517818761812016E-010   2.5628031773044697E-010  0.64452155000000000     
 chl2c          61  0.70794139999999994        3.7805373434125003E-002  0.70794139999999994        0.0000000000000000        6.0476898307806123E-006
 chl          61   1.8143144692653745E-010   2.5628031773044697E-010  0.70794139999999994     
 chl2c          62  0.76481592499999995        3.7956103087269030E-002  0.76481592499999995        0.0000000000000000        7.9291249228853108E-006
 chl          62   1.9600726826430569E-010   2.5628031773044697E-010  0.76481592499999995     
 chl2c          63  0.72597904999999996        3.7855601011927406E-002  0.72597904999999996        0.0000000000000000        9.2795546930461578E-016
 chl          63   1.8605414159964835E-010   2.5628031773044739E-010  0.72597904999999996     
 chl2c          64  0.48435739999999999        2.5708982294816416E-002  0.48435739999999999        0.0000000000000000        3.3470836818780768E-006
 chl          64   1.2418322018471481E-010   2.5638757699317656E-010  0.48435739999999999     
 chl2c          65  0.76379975000000000        3.7953597170552002E-002  0.76379975000000000        0.0000000000000000        9.3035872980875687E-016
 chl          65   1.9574684261243628E-010   2.5628031773044739E-010  0.76379975000000000     
 chl2c          66  0.35213202499999996        3.1840477731474713E-002  0.35213202499999996        0.0000000000000000        6.1108764090399120E-010
 chl          66   9.0282276671450659E-011   2.5638757699317656E-010  0.35213202499999996     
 chl2c          67  0.75736760000000003        3.7937587124568600E-002  0.75736760000000003        0.0000000000000000        8.6990950786427053E-006
 chl          67   1.9409840916674608E-010   2.5628031773044697E-010  0.75736760000000003     
 chl2c          68  0.72590779999999999        3.7855407263856986E-002  0.72590779999999999        0.0000000000000000        9.3035872980875687E-016
 chl          68   1.8603588162701004E-010   2.5628031773044739E-010  0.72590779999999999     
 chl2c          69  0.45524217500000003        2.1732330561541505E-002  0.45524217500000003        0.0000000000000000        5.3964157099005805E-016
 chl          69   1.1671843819335365E-010   2.5638757699317656E-010  0.45524217500000003     
 chl2c          70  0.48694062500000002        3.2658010878182209E-002  0.48694062500000002        0.0000000000000000        1.9732659487922598E-008
 chl          70   1.2484552698329302E-010   2.5638757699317656E-010  0.48694062500000002     
 chl2c          71  0.23986107500000001        4.3481058864416305E-002  0.23986107500000001        0.0000000000000000        1.4117144964801473E-019
 chl          71   6.1497399834228604E-011   2.5638757699317656E-010  0.23986107500000001     
 chl2c          72  0.62790522500000001        3.7549776402781669E-002  0.62790522500000001        0.0000000000000000        8.4385098382244621E-006
 chl          72   1.6091975056760805E-010   2.5628031773044739E-010  0.62790522500000001     
 chl2c          73  0.35362212500000001        3.1852614277819484E-002  0.35362212500000001        0.0000000000000000        1.1887048961497509E-010
 chl          73   9.0664319799928209E-011   2.5638757699317656E-010  0.35362212500000001     
 chl2c          74  0.64719590000000005        3.7616827685877569E-002  0.64719590000000005        0.0000000000000000        9.3433072554079315E-016
 chl          74   1.6586357088584260E-010   2.5628031773044697E-010  0.64719590000000005     
 chl2c          75  0.71554212500000003        3.7826830779512356E-002  0.71554212500000003        0.0000000000000000        4.6789398724386292E-006
 chl          75   1.8337936314451951E-010   2.5628031773044739E-010  0.71554212500000003     
 chl2c          76  0.55513977500000000        3.7257729557919804E-002  0.55513977500000000        0.0000000000000000        9.3035872980875687E-016
 chl          76   1.4227139792180908E-010   2.5628031773044739E-010  0.55513977500000000     
 chl2c          77  0.52973029999999999        3.7138172437479272E-002  0.52973029999999999        0.0000000000000000        9.2657655550408428E-016
 chl          77   1.3575944959544500E-010   2.5628031773044697E-010  0.52973029999999999     
 chl2c          78  0.45117492500000000        4.7515248899399322E-002  0.45117492500000000        0.0000000000000000        2.1793928217424753E-018
 chl          78   1.1567564582082816E-010   2.5638757699317656E-010  0.45117492500000000     
 prod   5.7293311230205906E-010   0.0000000000000000        10.000000000000000     
 dcdom   9.2595787493761876E-013  -1.2508851774405230E-015
 chl2c           1  0.60826437499999997        3.7477407714772232E-002  0.60826437499999997        0.0000000000000000        9.3573033252547297E-016
 chl           1   7.4057128263025399E-010   1.2175154637820997E-009  0.60826437499999997     
 chl2c           2  0.48302390000000001        3.2640259920490348E-002  0.48302390000000001        0.0000000000000000        8.4911028173062613E-020
 chl           2   5.8823478813089936E-010   1.2178171476212655E-009  0.48302390000000001     
 chl2c           3  0.75128689999999998        3.7922212503796585E-002  0.75128689999999998        0.0000000000000000        7.1681603552225263E-006
 chl           3   9.1470341848691594E-010   1.2175154637820997E-009  0.75128689999999998     
 chl2c           4  0.77318742499999993        3.7976509103863923E-002  0.77318742499999993        0.0000000000000000        9.3825301413738677E-016
 chl           4   9.4136764633936235E-010   1.2175154637820997E-009  0.77318742499999993     
 chl2c           5  0.48489679999999996        2.5710500362372445E-002  0.48489679999999996        0.0000000000000000        5.3956925970119068E-016
 chl           5   5.9051563786667924E-010   1.2178171476212655E-009  0.48489679999999996     
 chl2c           6  0.29222855000000003        3.1261039902252048E-002  0.29222855000000003        0.0000000000000000        1.5512519737803038E-018
 chl           6   3.5588093921449840E-010   1.2178171476212655E-009  0.29222855000000003     
 chl2c           7  0.22770740000000000        4.3064391842467263E-002  0.22770740000000000        0.0000000000000000        8.2855190068053237E-020
 chl           7   2.7730597636025458E-010   1.2178171476212655E-009  0.22770740000000000     
 chl2c           8  0.49578364999999996        4.7969800906495587E-002  0.49578364999999996        0.0000000000000000        8.8038717891618024E-020
 chl           8   6.0377383048025980E-010   1.2178171476212655E-009  0.49578364999999996     
 chl2c           9  0.28700202499999999        2.4803669054600401E-002  0.28700202499999999        0.0000000000000000        5.4184050196840809E-016
 chl           9   3.4951598744702711E-010   1.2178171476212655E-009  0.28700202499999999     
 chl2c          10  0.39094662499999999        2.5387016219684602E-002  0.39094662499999999        0.0000000000000000        5.4184836569732919E-016
 chl          10   4.7610150372966050E-010   1.2178171476212655E-009  0.39094662499999999     
 chl2c          11  0.49737575000000001        2.1820572217820047E-002  0.49737575000000001        0.0000000000000000        4.5880220867159553E-006
 chl          11   6.0571271716098760E-010   1.2178171476212655E-009  0.49737575000000001     
 chl2c          12  0.30768942500000002        4.5290941298723353E-002  0.30768942500000002        0.0000000000000000        4.5314639089894750E-010
 chl          12   3.7470945790672730E-010   1.2178171476212655E-009  0.30768942500000002     
 chl2c          13  0.75666275000000005        3.7935816987997487E-002  0.75666275000000005        0.0000000000000000        7.2644132633160803E-006
 chl          13   9.2124859887691586E-010   1.2175154636288304E-009  0.75666275000000005     
 chl2c          14  0.39804095000000000        4.6856526101924839E-002  0.39804095000000000        0.0000000000000000        1.5387843218356630E-009
 chl          14   4.8474109436545873E-010   1.2178171476212655E-009  0.39804095000000000     
 chl2c          15  0.25607262500000000        2.0954299823745293E-002  0.25607262500000000        0.0000000000000000        5.4323432145176436E-016
 chl          15   3.1184963376138998E-010   1.2178171476212655E-009  0.25607262500000000     
 chl2c          16  0.71433214999999994        3.7823443882273475E-002  0.71433214999999994        0.0000000000000000        5.5527328032102665E-006
 chl          16   8.6971043890171434E-010   1.2175154637820997E-009  0.71433214999999994     
 chl2c          17  0.62580860000000005        3.7542254757581245E-002  0.62580860000000005        0.0000000000000000        8.2298619920991934E-006
 chl          17   7.6193164786782656E-010   1.2175154637820997E-009  0.62580860000000005     
 chl2c          18  0.47925950000000000        2.5694475239060960E-002  0.47925950000000000        0.0000000000000000        1.3385748756090569E-006
 chl          18   5.8365043726039388E-010   1.2178171476212655E-009  0.47925950000000000     
 chl2c          19  0.63367130000000005        3.7570220750293731E-002  0.63367130000000005        0.0000000000000000        9.2840687192626206E-016
 chl          19   7.7150460670490611E-010   1.2175154637820997E-009  0.63367130000000005     
 chl2c          20  0.50678202500000002        3.7020645196759419E-002  0.50678202500000002        0.0000000000000000        7.8267034857240325E-006
 chl          20   6.1701495212663250E-010   1.2175154636288304E-009  0.50678202500000002     
 chl2c          21  0.71973185000000006        3.7838475073783531E-002  0.71973185000000006        0.0000000000000000        9.3329170702908762E-016
 chl          21   8.7628465704118588E-010   1.2175154636288304E-009  0.71973185000000006     
 chl2c          22  0.64616892500000001        3.7613353106285476E-002  0.64616892500000001        0.0000000000000000        9.3808794980521013E-016
 chl          22   7.8672065840295577E-010   1.2175154637820997E-009  0.64616892500000001     
 chl2c          23  0.41564179999999995        3.2286562315070731E-002  0.41564179999999995        0.0000000000000000        1.2120449264179980E-019
 chl          23   5.0617571130816848E-010   1.2178171476212655E-009  0.41564179999999995     
 chl2c          24  0.57597492500000003        3.7348402796863071E-002  0.57597492500000003        0.0000000000000000        5.8744245932237308E-006
 chl          24   7.0125837784995579E-010   1.2175154636288304E-009  0.57597492500000003     
 chl2c          25  0.31406487500000002        4.5426679235459781E-002  0.31406487500000002        0.0000000000000000        9.2318089822380873E-020
 chl          25   3.8247359024052933E-010   1.2178171476212655E-009  0.31406487500000002     
 chl2c          26  0.49427735000000000        4.7955660680174553E-002  0.49427735000000000        0.0000000000000000        7.3590996404619194E-010
 chl          26   6.0193943251079791E-010   1.2178171476212655E-009  0.49427735000000000     
 chl2c          27  0.30964730000000001        4.5333133499525620E-002  0.30964730000000001        0.0000000000000000        1.0290589716880492E-008
 chl          27   3.7709379165462630E-010   1.2178171476212655E-009  0.30964730000000001     
 chl2c          28  0.28776342500000002        3.1209236063453518E-002  0.28776342500000002        0.0000000000000000        1.0216272550983293E-008
 chl          28   3.5044323342322601E-010   1.2178171476212655E-009  0.28776342500000002     
 chl2c          29  0.68676297499999994        3.7743217595736761E-002  0.68676297499999994        0.0000000000000000        9.3416836997966736E-016
 chl          29   8.3614454191023975E-010   1.2175154636288304E-009  0.68676297499999994     
 chl2c          30  0.38930277499999999        2.5380056985171612E-002  0.38930277499999999        0.0000000000000000        4.7651324256965047E-006
 chl          30   4.7409959501154331E-010   1.2178171476212655E-009  0.38930277499999999     
 chl2c          31  0.63559385000000002        3.7576959810037038E-002  0.63559385000000002        0.0000000000000000        9.3635830407029410E-016
 chl          31   7.7384534096238328E-010   1.2175154636288304E-009  0.63559385000000002     
 chl2c          32  0.24722667500000001        2.0893126428578448E-002  0.24722667500000001        0.0000000000000000        5.4365783293709327E-016
 chl          32   3.0107688416438963E-010   1.2178171476212655E-009  0.24722667500000001     
 chl2c          33  0.60343137499999999        3.7458922634011876E-002  0.60343137499999999        0.0000000000000000        9.2987407353526863E-016
 chl          33   7.3468703030130755E-010   1.2175154636288304E-009  0.60343137499999999     
 chl2c          34  0.38241020000000003        2.5350269098008315E-002  0.38241020000000003        0.0000000000000000        5.3925575712534499E-016
 chl          34   4.6570569898527770E-010   1.2178171476212655E-009  0.38241020000000003     
 chl2c          35  0.49574644999999995        2.5740370148566064E-002  0.49574644999999995        0.0000000000000000        3.9412019285304178E-006
 chl          35   6.0372852768236825E-010   1.2178171476212655E-009  0.49574644999999995     
 chl2c          36  0.69587337500000002        3.7770393924465726E-002  0.69587337500000002        0.0000000000000000        5.9874104266855207E-006
 chl          36   8.4723659489674004E-010   1.2175154637820997E-009  0.69587337500000002     
 chl2c          37  0.33194060000000003        2.1353674699533250E-002  0.33194060000000003        0.0000000000000000        2.4829244097766429E-007
 chl          37   4.0424295467169147E-010   1.2178171476212655E-009  0.33194060000000003     
 chl2c          38  0.38455722500000000        2.1543295686358745E-002  0.38455722500000000        0.0000000000000000        3.4160501111073027E-006
 chl          38   4.6832038284664926E-010   1.2178171476212655E-009  0.38455722500000000     
 chl2c          39  0.47091117500000002        2.5670077108751441E-002  0.47091117500000002        0.0000000000000000        2.2084239070180502E-006
 chl          39   5.7348370392147863E-010   1.2178171476212655E-009  0.47091117500000002     
 chl2c          40  0.66875547499999999        3.7687445774703773E-002  0.66875547499999999        0.0000000000000000        5.5704446615000766E-006
 chl          40   8.1422013230144339E-010   1.2175154637820997E-009  0.66875547499999999     
 chl2c          41  0.44304987499999998        2.5582381488167241E-002  0.44304987499999998        0.0000000000000000        5.3742518611395701E-016
 chl          41   5.3955373502645826E-010   1.2178171476212655E-009  0.44304987499999998     
 chl2c          42  0.76234377499999995        3.7949995630725070E-002  0.76234377499999995        0.0000000000000000        4.6898281287479563E-006
 chl          42   9.2816533466367768E-010   1.2175154636288304E-009  0.76234377499999995     
 chl2c          43  0.29539925000000000        2.1185090152268007E-002  0.29539925000000000        0.0000000000000000        5.4365991415933761E-016
 chl          43   3.5974227204446112E-010   1.2178171476212655E-009  0.29539925000000000     
 chl2c          44  0.62417262500000004        3.7536352708156646E-002  0.62417262500000004        0.0000000000000000        7.9082607564449698E-006
 chl          44   7.5993982291129917E-010   1.2175154636288304E-009  0.62417262500000004     
 chl2c          45  0.37662252499999999        4.6544927192009838E-002  0.37662252499999999        0.0000000000000000        1.1159636733930125E-019
 chl          45   4.5865736912541875E-010   1.2178171476212655E-009  0.37662252499999999     
 chl2c          46  0.51876034999999998        3.7083195475449568E-002  0.51876034999999998        0.0000000000000000        9.3633137911133056E-016
 chl          46   6.3159874804250426E-010   1.2175154636288304E-009  0.51876034999999998     
 chl2c          47  0.61962282499999999        3.7519784612651236E-002  0.61962282499999999        0.0000000000000000        8.2275107824849568E-006
 chl          47   7.5440037105488058E-010   1.2175154636288304E-009  0.61962282499999999     
 chl2c          48  0.71424949999999998        3.7823212136301673E-002  0.71424949999999998        0.0000000000000000        6.3881578630039466E-006
 chl          48   8.6960981113916030E-010   1.2175154636288304E-009  0.71424949999999998     
 chl2c          49  0.53276120000000005        3.7152990741888416E-002  0.53276120000000005        0.0000000000000000        8.1975816716557333E-006
 chl          49   6.4864499942145208E-010   1.2175154636288304E-009  0.53276120000000005     
 chl2c          50  0.38132569999999999        2.1533072915600981E-002  0.38132569999999999        0.0000000000000000        5.4081513993120430E-016
 chl          50   4.6438497628868240E-010   1.2178171476212655E-009  0.38132569999999999     
 chl2c          51  0.22275920000000002        2.0700971146093840E-002  0.22275920000000002        0.0000000000000000        3.6262994900912496E-006
 chl          51   2.7127997355039504E-010   1.2178171476212655E-009  0.22275920000000002     
 chl2c          52  0.63698869999999996        3.7581825176985564E-002  0.63698869999999996        0.0000000000000000        6.7652579914104519E-006
 chl          52   7.7554359250445677E-010   1.2175154637820997E-009  0.63698869999999996     
 chl2c          53  0.75269794999999995        3.7925801262726190E-002  0.75269794999999995        0.0000000000000000        3.9139954592501668E-006
 chl          53   9.1642139368208563E-010   1.2175154637820997E-009  0.75269794999999995     
 chl2c          54  0.51861124999999997        3.7082433371327092E-002  0.51861124999999997        0.0000000000000000        8.1562116619316437E-006
 chl          54   6.3141721648687719E-010   1.2175154636288304E-009  0.51861124999999997     
 chl2c          55  0.57808280000000001        3.7357235588660491E-002  0.57808280000000001        0.0000000000000000        9.3784989210908103E-016
 chl          55   7.0382474825785239E-010   1.2175154636288304E-009  0.57808280000000001     
 chl2c          56  0.61626080000000005        3.7507394187257688E-002  0.61626080000000005        0.0000000000000000        5.2150144573855917E-006
 chl          56   7.5030705372272785E-010   1.2175154637820997E-009  0.61626080000000005     
 chl2c          57  0.68163462500000005        3.7727617852646313E-002  0.68163462500000005        0.0000000000000000        9.3832720629673085E-016
 chl          57   8.2990069648233898E-010   1.2175154636288304E-009  0.68163462500000005     
 chl2c          58  0.69416802499999997        3.7765358178394853E-002  0.69416802499999997        0.0000000000000000        9.3738618585768895E-016
 chl          58   8.4516030490057911E-010   1.2175154637820997E-009  0.69416802499999997     
 chl2c          59  0.53705127500000005        3.7173699120809672E-002  0.53705127500000005        0.0000000000000000        9.3909778722339699E-016
 chl          59   6.5386823207407950E-010   1.2175154636288304E-009  0.53705127500000005     
 chl2c          60  0.64452155000000000        3.7607757740906807E-002  0.64452155000000000        0.0000000000000000        9.2749715373642203E-016
 chl          60   7.8471495376702238E-010   1.2175154636288304E-009  0.64452155000000000     
 chl2c          61  0.70794139999999994        3.7805373434125003E-002  0.70794139999999994        0.0000000000000000        7.1718369387272858E-006
 chl          61   8.6192960184304321E-010   1.2175154636288304E-009  0.70794139999999994     
 chl2c          62  0.76481592499999995        3.7956103087269030E-002  0.76481592499999995        0.0000000000000000        6.2022000522322245E-006
 chl          62   9.3117521551708773E-010   1.2175154636288304E-009  0.76481592499999995     
 chl2c          63  0.72597904999999996        3.7855601011927406E-002  0.72597904999999996        0.0000000000000000        9.2795546930459468E-016
 chl          63   8.8389071975683810E-010   1.2175154637820997E-009  0.72597904999999996     
 chl2c          64  0.48435739999999999        2.5708982294816416E-002  0.48435739999999999        0.0000000000000000        4.2626553094208715E-006
 chl          64   5.8985874729725237E-010   1.2178171476212655E-009  0.48435739999999999     
 chl2c          65  0.76379975000000000        3.7953597170552002E-002  0.76379975000000000        0.0000000000000000        9.3121321110323737E-016
 chl          65   9.2993800685790184E-010   1.2175154637820997E-009  0.76379975000000000     
 chl2c          66  0.35213202499999996        3.1840477731474713E-002  0.35213202499999996        0.0000000000000000        6.6705428803156654E-010
 chl          66   4.2883241827160010E-010   1.2178171476212655E-009  0.35213202499999996     
 chl2c          67  0.75736760000000003        3.7937587124568600E-002  0.75736760000000003        0.0000000000000000        8.1960366631620108E-006
 chl          67   9.2210676465145462E-010   1.2175154636288304E-009  0.75736760000000003     
 chl2c          68  0.72590779999999999        3.7855407263856986E-002  0.72590779999999999        0.0000000000000000        9.3825301413738677E-016
 chl          68   8.8380397178004366E-010   1.2175154637820997E-009  0.72590779999999999     
 chl2c          69  0.45524217500000003        2.1732330561541505E-002  0.45524217500000003        0.0000000000000000        5.3964157099005124E-016
 chl          69   5.5440172703540104E-010   1.2178171476212655E-009  0.45524217500000003     
 chl2c          70  0.48694062500000002        3.2658010878182209E-002  0.48694062500000002        0.0000000000000000        1.2639806772703583E-008
 chl          70   5.9300464299841630E-010   1.2178171476212655E-009  0.48694062500000002     
 chl2c          71  0.23986107500000001        4.3481058864416305E-002  0.23986107500000001        0.0000000000000000        1.0262743011902690E-019
 chl          71   2.9210693018187045E-010   1.2178171476212655E-009  0.23986107500000001     
 chl2c          72  0.62790522500000001        3.7549776402781669E-002  0.62790522500000001        0.0000000000000000        7.3083053905956084E-006
 chl          72   7.6448432122707864E-010   1.2175154637820997E-009  0.62790522500000001     
 chl2c          73  0.35362212500000001        3.1852614277819484E-002  0.35362212500000001        0.0000000000000000        4.9339104210043674E-010
 chl          73   4.3064708760327061E-010   1.2178171476212655E-009  0.35362212500000001     
 chl2c          74  0.64719590000000005        3.7616827685877569E-002  0.64719590000000005        0.0000000000000000        9.3433072554077560E-016
 chl          74   7.8797101624717815E-010   1.2175154636288304E-009  0.64719590000000005     
 chl2c          75  0.71554212500000003        3.7826830779512356E-002  0.71554212500000003        0.0000000000000000        6.3541956489288838E-006
 chl          75   8.7118360217500421E-010   1.2175154637820997E-009  0.71554212500000003     
 chl2c          76  0.55513977500000000        3.7257729557919804E-002  0.55513977500000000        0.0000000000000000        9.3441754948682582E-016
 chl          76   6.7589126062301544E-010   1.2175154637820997E-009  0.55513977500000000     
 chl2c          77  0.52973029999999999        3.7138172437479272E-002  0.52973029999999999        0.0000000000000000        9.2657655550406239E-016
 chl          77   6.4495483180273937E-010   1.2175154636288304E-009  0.52973029999999999     
 chl2c          78  0.45117492500000000        4.7515248899399322E-002  0.45117492500000000        0.0000000000000000        1.4876223169875465E-018
 chl          78   5.4944856024173836E-010   1.2178171476212655E-009  0.45117492500000000     
 prod   4.1647613795566640E-010   0.0000000000000000        10.000000000000000     
 dcdom   6.7577997965683799E-013  -3.6145096444990375E-015
 chl2c           1  0.60826437499999997        3.7477407714772232E-002  0.60826437499999997        0.0000000000000000        9.3573033252263011E-016
 chl           1   2.0329301842799654E-010   3.3421818995728058E-010  0.60826437499999997     
 chl2c           2  0.48302390000000001        3.2640259920490348E-002  0.48302390000000001        0.0000000000000000        3.7559008486603879E-020
 chl           2   1.6134608256471490E-010   3.3403333161095113E-010  0.48302390000000001     
 chl2c           3  0.75128689999999998        3.7922212503796585E-002  0.75128689999999998        0.0000000000000000        7.3531401131753435E-006
 chl           3   2.5109374785661644E-010   3.3421818995728058E-010  0.75128689999999998     
 chl2c           4  0.77318742499999993        3.7976509103863923E-002  0.77318742499999993        0.0000000000000000        9.3841762902401853E-016
 chl           4   2.5841330168123059E-010   3.3421818995728058E-010  0.77318742499999993     
 chl2c           5  0.48489679999999996        2.5710500362372445E-002  0.48489679999999996        0.0000000000000000        5.3956925970003657E-016
 chl           5   1.6197169359148904E-010   3.3403333161095113E-010  0.48489679999999996     
 chl2c           6  0.29222855000000003        3.1261039902252048E-002  0.29222855000000003        0.0000000000000000        6.3368410872174072E-019
 chl           6   9.7614076148337420E-011   3.3403333161095113E-010  0.29222855000000003     
 chl2c           7  0.22770740000000000        4.3064391842467263E-002  0.22770740000000000        0.0000000000000000        3.6649565781161813E-020
 chl           7   7.6061861454467493E-011   3.3403333161095113E-010  0.22770740000000000     
 chl2c           8  0.49578364999999996        4.7969800906495587E-002  0.49578364999999996        0.0000000000000000        3.8942614283953612E-020
 chl           8   1.6560826436773771E-010   3.3403333161095113E-010  0.49578364999999996     
 chl2c           9  0.28700202499999999        2.4803669054600401E-002  0.28700202499999999        0.0000000000000000        5.4184050196747644E-016
 chl           9   9.5868242589839483E-011   3.3403333161095113E-010  0.28700202499999999     
 chl2c          10  0.39094662499999999        2.5387016219684602E-002  0.39094662499999999        0.0000000000000000        5.4184836569639824E-016
 chl          10   1.3058920363080716E-010   3.3403333161095113E-010  0.39094662499999999     
 chl2c          11  0.49737575000000001        2.1820572217820047E-002  0.49737575000000001        0.0000000000000000        4.5798996022678157E-006
 chl          11   1.6614007883499552E-010   3.3403333161095113E-010  0.49737575000000001     
 chl2c          12  0.30768942500000002        4.5290941298723353E-002  0.30768942500000002        0.0000000000000000        1.4712128775552778E-010
 chl          12   1.0277852373420788E-010   3.3403333161095113E-010  0.30768942500000002     
 chl2c          13  0.75666275000000005        3.7935816987997487E-002  0.75666275000000005        0.0000000000000000        6.6762406225097350E-006
 chl          13   2.5289045471105165E-010   3.3421818995457570E-010  0.75666275000000005     
 chl2c          14  0.39804095000000000        4.6856526101924839E-002  0.39804095000000000        0.0000000000000000        1.2445194510327755E-009
 chl          14   1.3295894464608801E-010   3.3403333161095113E-010  0.39804095000000000     
 chl2c          15  0.25607262500000000        2.0954299823745293E-002  0.25607262500000000        0.0000000000000000        5.4323432145097017E-016
 chl          15   8.5536792063111728E-011   3.3403333161095113E-010  0.25607262500000000     
 chl2c          16  0.71433214999999994        3.7823443882273475E-002  0.71433214999999994        0.0000000000000000        4.6388207603249374E-006
 chl          16   2.3874279820129261E-010   3.3421818995728058E-010  0.71433214999999994     
 chl2c          17  0.62580860000000005        3.7542254757581245E-002  0.62580860000000005        0.0000000000000000        8.0532694309533499E-006
 chl          17   2.0915661755169983E-010   3.3421818995728058E-010  0.62580860000000005     
 chl2c          18  0.47925950000000000        2.5694475239060960E-002  0.47925950000000000        0.0000000000000000        2.0206676252273773E-006
 chl          18   1.6008864749119863E-010   3.3403333161095113E-010  0.47925950000000000     
 chl2c          19  0.63367130000000005        3.7570220750293731E-002  0.63367130000000005        0.0000000000000000        9.2840687192272362E-016
 chl          19   2.1178447491387695E-010   3.3421818995728058E-010  0.63367130000000005     
 chl2c          20  0.50678202500000002        3.7020645196759419E-002  0.50678202500000002        0.0000000000000000        7.4097144158791235E-006
 chl          20   1.6937577109701454E-010   3.3421818995457570E-010  0.50678202500000002     
 chl2c          21  0.71973185000000006        3.7838475073783531E-002  0.71973185000000006        0.0000000000000000        9.3329170702601185E-016
 chl          21   2.4054747615965819E-010   3.3421818995457570E-010  0.71973185000000006     
 chl2c          22  0.64616892500000001        3.7613353106285476E-002  0.64616892500000001        0.0000000000000000        9.3808794980259367E-016
 chl          22   2.1596140852014180E-010   3.3421818995728058E-010  0.64616892500000001     
 chl2c          23  0.41564179999999995        3.2286562315070731E-002  0.41564179999999995        0.0000000000000000        5.3614799768527003E-020
 chl          23   1.3883821521077262E-010   3.3403333161095113E-010  0.41564179999999995     
 chl2c          24  0.57597492500000003        3.7348402796863071E-002  0.57597492500000003        0.0000000000000000        6.3264216550110940E-006
 chl          24   1.9250129689272251E-010   3.3421818995457570E-010  0.57597492500000003     
 chl2c          25  0.31406487500000002        4.5426679235459781E-002  0.31406487500000002        0.0000000000000000        4.0835707502319601E-020
 chl          25   1.0490813653822692E-010   3.3403333161095113E-010  0.31406487500000002     
 chl2c          26  0.49427735000000000        4.7955660680174553E-002  0.49427735000000000        0.0000000000000000        3.1803837522081661E-010
 chl          26   1.6510510996033216E-010   3.3403333161095113E-010  0.49427735000000000     
 chl2c          27  0.30964730000000001        4.5333133499525620E-002  0.30964730000000001        0.0000000000000000        4.1077389496847877E-009
 chl          27   1.0343251924333567E-010   3.3403333161095113E-010  0.30964730000000001     
 chl2c          28  0.28776342500000002        3.1209236063453518E-002  0.28776342500000002        0.0000000000000000        4.0604794256991925E-009
 chl          28   9.6122575568528066E-011   3.3403333161095113E-010  0.28776342500000002     
 chl2c          29  0.68676297499999994        3.7743217595736761E-002  0.68676297499999994        0.0000000000000000        9.3416836997667521E-016
 chl          29   2.2952867843231949E-010   3.3421818995457570E-010  0.68676297499999994     
 chl2c          30  0.38930277499999999        2.5380056985171612E-002  0.38930277499999999        0.0000000000000000        4.6645660062421946E-006
 chl          30   1.3004010293863849E-010   3.3403333161095113E-010  0.38930277499999999     
 chl2c          31  0.63559385000000002        3.7576959810037038E-002  0.63559385000000002        0.0000000000000000        9.3635830406751139E-016
 chl          31   2.1242702609326010E-010   3.3421818995457570E-010  0.63559385000000002     
 chl2c          32  0.24722667500000001        2.0893126428578448E-002  0.24722667500000001        0.0000000000000000        5.4365783293634109E-016
 chl          32   8.2581949913347844E-011   3.3403333161095113E-010  0.24722667500000001     
 chl2c          33  0.60343137499999999        3.7458922634011876E-002  0.60343137499999999        0.0000000000000000        9.2987407353186844E-016
 chl          33   2.0167774191430080E-010   3.3421818995457570E-010  0.60343137499999999     
 chl2c          34  0.38241020000000003        2.5350269098008315E-002  0.38241020000000003        0.0000000000000000        5.3925575712416022E-016
 chl          34   1.2773775314801015E-010   3.3403333161095113E-010  0.38241020000000003     
 chl2c          35  0.49574644999999995        2.5740370148566064E-002  0.49574644999999995        0.0000000000000000        4.1661950796401973E-006
 chl          35   1.6559583832780179E-010   3.3403333161095113E-010  0.49574644999999995     
 chl2c          36  0.69587337500000002        3.7770393924465726E-002  0.69587337500000002        0.0000000000000000        6.4219223662042335E-006
 chl          36   2.3257353983196395E-010   3.3421818995728058E-010  0.69587337500000002     
 chl2c          37  0.33194060000000003        2.1353674699533250E-002  0.33194060000000003        0.0000000000000000        9.1429746384407340E-007
 chl          37   1.1087922451493809E-010   3.3403333161095113E-010  0.33194060000000003     
 chl2c          38  0.38455722500000000        2.1543295686358745E-002  0.38455722500000000        0.0000000000000000        3.7941999595918981E-006
 chl          38   1.2845493106181215E-010   3.3403333161095113E-010  0.38455722500000000     
 chl2c          39  0.47091117500000002        2.5670077108751441E-002  0.47091117500000002        0.0000000000000000        2.8085342157211931E-006
 chl          39   1.5730002867807764E-010   3.3403333161095113E-010  0.47091117500000002     
 chl2c          40  0.66875547499999999        3.7687445774703773E-002  0.66875547499999999        0.0000000000000000        4.6586386357591688E-006
 chl          40   2.2351024437852139E-010   3.3421818995728058E-010  0.66875547499999999     
 chl2c          41  0.44304987499999998        2.5582381488167241E-002  0.44304987499999998        0.0000000000000000        5.3742518611259455E-016
 chl          41   1.4799342581606543E-010   3.3403333161095113E-010  0.44304987499999998     
 chl2c          42  0.76234377499999995        3.7949995630725070E-002  0.76234377499999995        0.0000000000000000        3.7002762616645352E-006
 chl          42   2.5478915660363832E-010   3.3421818995457570E-010  0.76234377499999995     
 chl2c          43  0.29539925000000000        2.1185090152268007E-002  0.29539925000000000        0.0000000000000000        5.4365991415858553E-016
 chl          43   9.8673195632876258E-011   3.3403333161095113E-010  0.29539925000000000     
 chl2c          44  0.62417262500000004        3.7536352708156646E-002  0.62417262500000004        0.0000000000000000        7.5523756468085995E-006
 chl          44   2.0860984494669617E-010   3.3421818995457570E-010  0.62417262500000004     
 chl2c          45  0.37662252499999999        4.6544927192009838E-002  0.37662252499999999        0.0000000000000000        4.9364166140107955E-020
 chl          45   1.2580447678547873E-010   3.3403333161095113E-010  0.37662252499999999     
 chl2c          46  0.51876034999999998        3.7083195475449568E-002  0.51876034999999998        0.0000000000000000        9.3633137910854529E-016
 chl          46   1.7337914519720218E-010   3.3421818995457570E-010  0.51876034999999998     
 chl2c          47  0.61962282499999999        3.7519784612651236E-002  0.61962282499999999        0.0000000000000000        8.0414644891008920E-006
 chl          47   2.0708921902604081E-010   3.3421818995457570E-010  0.61962282499999999     
 chl2c          48  0.71424949999999998        3.7823212136301673E-002  0.71424949999999998        0.0000000000000000        5.6003403870704160E-006
 chl          48   2.3871517506596072E-010   3.3421818995457570E-010  0.71424949999999998     
 chl2c          49  0.53276120000000005        3.7152990741888416E-002  0.53276120000000005        0.0000000000000000        8.0118072976930947E-006
 chl          49   1.7805848394202770E-010   3.3421818995457570E-010  0.53276120000000005     
 chl2c          50  0.38132569999999999        2.1533072915600981E-002  0.38132569999999999        0.0000000000000000        5.4081513993017187E-016
 chl          50   1.2737549399987807E-010   3.3403333161095113E-010  0.38132569999999999     
 chl2c          51  0.22275920000000002        2.0700971146093840E-002  0.22275920000000002        0.0000000000000000        3.9520805485351435E-006
 chl          51   7.4408997722990184E-011   3.3403333161095113E-010  0.22275920000000002     
 chl2c          52  0.63698869999999996        3.7581825176985564E-002  0.63698869999999996        0.0000000000000000        6.0450076357936703E-006
 chl          52   2.1289321033724121E-010   3.3421818995728058E-010  0.63698869999999996     
 chl2c          53  0.75269794999999995        3.7925801262726190E-002  0.75269794999999995        0.0000000000000000        2.8829899766765115E-006
 chl          53   2.5156534643355569E-010   3.3421818995728058E-010  0.75269794999999995     
 chl2c          54  0.51861124999999997        3.7082433371327092E-002  0.51861124999999997        0.0000000000000000        7.9712466581131666E-006
 chl          54   1.7332931326507995E-010   3.3421818995457570E-010  0.51861124999999997     
 chl2c          55  0.57808280000000001        3.7357235588660491E-002  0.57808280000000001        0.0000000000000000        9.3784989210644150E-016
 chl          55   1.9320578705987299E-010   3.3421818995457570E-010  0.57808280000000001     
 chl2c          56  0.61626080000000005        3.7507394187257688E-002  0.61626080000000005        0.0000000000000000        5.7959947825806487E-006
 chl          56   2.0596556911762571E-010   3.3421818995728058E-010  0.61626080000000005     
 chl2c          57  0.68163462500000005        3.7727617852646313E-002  0.68163462500000005        0.0000000000000000        9.3832720629413728E-016
 chl          57   2.2781469057786599E-010   3.3421818995457570E-010  0.68163462500000005     
 chl2c          58  0.69416802499999997        3.7765358178394853E-002  0.69416802499999997        0.0000000000000000        9.3738618585500505E-016
 chl          58   2.3200358084172028E-010   3.3421818995728058E-010  0.69416802499999997     
 chl2c          59  0.53705127500000005        3.7173699120809672E-002  0.53705127500000005        0.0000000000000000        9.3909778722087776E-016
 chl          59   1.7949230504329709E-010   3.3421818995457570E-010  0.53705127500000005     
 chl2c          60  0.64452155000000000        3.7607757740906807E-002  0.64452155000000000        0.0000000000000000        9.2749715373279800E-016
 chl          60   2.1541082582771757E-010   3.3421818995457570E-010  0.64452155000000000     
 chl2c          61  0.70794139999999994        3.7805373434125003E-002  0.70794139999999994        0.0000000000000000        7.3485651695630605E-006
 chl          61   2.3660689330190821E-010   3.3421818995457570E-010  0.70794139999999994     
 chl2c          62  0.76481592499999995        3.7956103087269030E-002  0.76481592499999995        0.0000000000000000        5.3986264198981121E-006
 chl          62   2.5561539410193451E-010   3.3421818995457570E-010  0.76481592499999995     
 chl2c          63  0.72597904999999996        3.7855601011927406E-002  0.72597904999999996        0.0000000000000000        9.2795546930101365E-016
 chl          63   2.4263540403790608E-010   3.3421818995728058E-010  0.72597904999999996     
 chl2c          64  0.48435739999999999        2.5708982294816416E-002  0.48435739999999999        0.0000000000000000        4.3704475664450486E-006
 chl          64   1.6179151601241809E-010   3.3403333161095113E-010  0.48435739999999999     
 chl2c          65  0.76379975000000000        3.7953597170552002E-002  0.76379975000000000        0.0000000000000000        9.3121321109996419E-016
 chl          65   2.5527576993482344E-010   3.3421818995728058E-010  0.76379975000000000     
 chl2c          66  0.35213202499999996        3.1840477731474713E-002  0.35213202499999996        0.0000000000000000        3.1233834245532174E-010
 chl          66   1.1762383347766073E-010   3.3403333161095113E-010  0.35213202499999996     
 chl2c          67  0.75736760000000003        3.7937587124568600E-002  0.75736760000000003        0.0000000000000000        8.0101976508452463E-006
 chl          67   2.5312602840224112E-010   3.3421818995457570E-010  0.75736760000000003     
 chl2c          68  0.72590779999999999        3.7855407263856986E-002  0.72590779999999999        0.0000000000000000        9.3841762902401853E-016
 chl          68   2.4261159099187166E-010   3.3421818995728058E-010  0.72590779999999999     
 chl2c          69  0.45524217500000003        2.1732330561541505E-002  0.45524217500000003        0.0000000000000000        5.3964157098890414E-016
 chl          69   1.5206606040506567E-010   3.3403333161095113E-010  0.45524217500000003     
 chl2c          70  0.48694062500000002        3.2658010878182209E-002  0.48694062500000002        0.0000000000000000        5.0237241072794944E-009
 chl          70   1.6265439926546879E-010   3.3403333161095113E-010  0.48694062500000002     
 chl2c          71  0.23986107500000001        4.3481058864416305E-002  0.23986107500000001        0.0000000000000000        4.5396383848318887E-020
 chl          71   8.0121594006034224E-011   3.3403333161095113E-010  0.23986107500000001     
 chl2c          72  0.62790522500000001        3.7549776402781669E-002  0.62790522500000001        0.0000000000000000        6.7166964986837074E-006
 chl          72   2.0985734776421900E-010   3.3421818995728058E-010  0.62790522500000001     
 chl2c          73  0.35362212500000001        3.1852614277819484E-002  0.35362212500000001        0.0000000000000000        2.7332057226301251E-010
 chl          73   1.1812157654509422E-010   3.3403333161095113E-010  0.35362212500000001     
 chl2c          74  0.64719590000000005        3.7616827685877569E-002  0.64719590000000005        0.0000000000000000        9.3433072553779883E-016
 chl          74   2.1630464224402259E-010   3.3421818995457570E-010  0.64719590000000005     
 chl2c          75  0.71554212500000003        3.7826830779512356E-002  0.71554212500000003        0.0000000000000000        6.7163984629993569E-006
 chl          75   2.3914719385568621E-010   3.3421818995728058E-010  0.71554212500000003     
 chl2c          76  0.55513977500000000        3.7257729557919804E-002  0.55513977500000000        0.0000000000000000        9.3441754948385734E-016
 chl          76   1.8553781077379200E-010   3.3421818995728058E-010  0.55513977500000000     
 chl2c          77  0.52973029999999999        3.7138172437479272E-002  0.52973029999999999        0.0000000000000000        9.2657655550035178E-016
 chl          77   1.7704550203009436E-010   3.3421818995457570E-010  0.52973029999999999     
 chl2c          78  0.45117492500000000        4.7515248899399322E-002  0.45117492500000000        0.0000000000000000        6.0765548969864582E-019
 chl          78   1.5070746333707101E-010   3.3403333161095113E-010  0.45117492500000000     
 prod   1.8420559870198198E-010   0.0000000000000000        10.000000000000000     
 dcdom   3.0143199206265535E-013  -1.0819703959830043E-015
 chl2c           1  0.60826437499999997        3.7477407714772232E-002  0.60826437499999997        0.0000000000000000        9.3573033252262913E-016
 chl           1   2.0317936672643025E-010   3.3403134406224310E-010  0.60826437499999997     
 chl2c           2  0.48302390000000001        3.2640259920490348E-002  0.48302390000000001        0.0000000000000000        3.7558888696957395E-020
 chl           2   1.6134511772642408E-010   3.3403133411498699E-010  0.48302390000000001     
 chl2c           3  0.75128689999999998        3.7922212503796585E-002  0.75128689999999998        0.0000000000000000        7.3531434877084345E-006
 chl           3   2.5095337298335604E-010   3.3403134406224310E-010  0.75128689999999998     
 chl2c           4  0.77318742499999993        3.7976509103863923E-002  0.77318742499999993        0.0000000000000000        9.3841762495870255E-016
 chl           4   2.5826883478477475E-010   3.3403134406224310E-010  0.77318742499999993     
 chl2c           5  0.48489679999999996        2.5710500362372445E-002  0.48489679999999996        0.0000000000000000        5.3956925970003628E-016
 chl           5   1.6197072501208801E-010   3.3403133411498699E-010  0.48489679999999996     
 chl2c           6  0.29222855000000003        3.1261039902252048E-002  0.29222855000000003        0.0000000000000000        6.3368189463405357E-019
 chl           6   9.7613492422988189E-011   3.3403133411498699E-010  0.29222855000000003     
 chl2c           7  0.22770740000000000        4.3064391842467263E-002  0.22770740000000000        0.0000000000000000        3.6649448891873447E-020
 chl           7   7.6061406609854989E-011   3.3403133411498699E-010  0.22770740000000000     
 chl2c           8  0.49578364999999996        4.7969800906495587E-002  0.49578364999999996        0.0000000000000000        3.8942490081785487E-020
 chl           8   1.6560727404189776E-010   3.3403133411498699E-010  0.49578364999999996     
 chl2c           9  0.28700202499999999        2.4803669054600401E-002  0.28700202499999999        0.0000000000000000        5.4184050196747605E-016
 chl           9   9.5867669304452852E-011   3.3403133411498699E-010  0.28700202499999999     
 chl2c          10  0.39094662499999999        2.5387016219684602E-002  0.39094662499999999        0.0000000000000000        5.4184836569639804E-016
 chl          10   1.3058842271650151E-010   3.3403133411498699E-010  0.39094662499999999     
 chl2c          11  0.49737575000000001        2.1820572217820047E-002  0.49737575000000001        0.0000000000000000        4.5798986641380810E-006
 chl          11   1.6613908532894224E-010   3.3403133411498699E-010  0.49737575000000001     
 chl2c          12  0.30768942500000002        4.5290941298723353E-002  0.30768942500000002        0.0000000000000000        1.4711940368766950E-010
 chl          12   1.0277790912582324E-010   3.3403133411498699E-010  0.30768942500000002     
 chl2c          13  0.75666275000000005        3.7935816987997487E-002  0.75666275000000005        0.0000000000000000        6.6762243198455900E-006
 chl          13   2.5274907538229615E-010   3.3403134405955115E-010  0.75666275000000005     
 chl2c          14  0.39804095000000000        4.6856526101924839E-002  0.39804095000000000        0.0000000000000000        1.2445308518358621E-009
 chl          14   1.3295814956089684E-010   3.3403133411498699E-010  0.39804095000000000     
 chl2c          15  0.25607262500000000        2.0954299823745293E-002  0.25607262500000000        0.0000000000000000        5.4323432145096987E-016
 chl          15   8.5536280559076765E-011   3.3403133411498699E-010  0.25607262500000000     
 chl2c          16  0.71433214999999994        3.7823443882273475E-002  0.71433214999999994        0.0000000000000000        4.6387963414512743E-006
 chl          16   2.3860932817137181E-010   3.3403134406224310E-010  0.71433214999999994     
 chl2c          17  0.62580860000000005        3.7542254757581245E-002  0.62580860000000005        0.0000000000000000        8.0532647440922686E-006
 chl          17   2.0903968778371068E-010   3.3403134406224310E-010  0.62580860000000005     
 chl2c          18  0.47925950000000000        2.5694475239060960E-002  0.47925950000000000        0.0000000000000000        2.0206844110012204E-006
 chl          18   1.6008769017228160E-010   3.3403133411498699E-010  0.47925950000000000     
 chl2c          19  0.63367130000000005        3.7570220750293731E-002  0.63367130000000005        0.0000000000000000        9.2840687192272264E-016
 chl          19   2.1166607603266889E-010   3.3403134406224310E-010  0.63367130000000005     
 chl2c          20  0.50678202500000002        3.7020645196759419E-002  0.50678202500000002        0.0000000000000000        7.4097027453270645E-006
 chl          20   1.6928108095597107E-010   3.3403134405955115E-010  0.50678202500000002     
 chl2c          21  0.71973185000000006        3.7838475073783531E-002  0.71973185000000006        0.0000000000000000        9.3329170702601087E-016
 chl          21   2.4041299721796725E-010   3.3403134405955115E-010  0.71973185000000006     
 chl2c          22  0.64616892500000001        3.7613353106285476E-002  0.64616892500000001        0.0000000000000000        9.3808794980259288E-016
 chl          22   2.1584067450900475E-010   3.3403134406224310E-010  0.64616892500000001     
 chl2c          23  0.41564179999999995        3.2286562315070731E-002  0.41564179999999995        0.0000000000000000        5.3614628775972630E-020
 chl          23   1.3883738496795458E-010   3.3403133411498699E-010  0.41564179999999995     
 chl2c          24  0.57597492500000003        3.7348402796863071E-002  0.57597492500000003        0.0000000000000000        6.3264315896024329E-006
 chl          24   1.9239367834234918E-010   3.3403134405955115E-010  0.57597492500000003     
 chl2c          25  0.31406487500000002        4.5426679235459781E-002  0.31406487500000002        0.0000000000000000        4.0835577262835692E-020
 chl          25   1.0490750919490663E-010   3.3403133411498699E-010  0.31406487500000002     
 chl2c          26  0.49427735000000000        4.7955660680174553E-002  0.49427735000000000        0.0000000000000000        3.1803716634937493E-010
 chl          26   1.6510412264332035E-010   3.3403133411498699E-010  0.49427735000000000     
 chl2c          27  0.30964730000000001        4.5333133499525620E-002  0.30964730000000001        0.0000000000000000        4.1077221640946384E-009
 chl          27   1.0343190072410362E-010   3.3403133411498699E-010  0.30964730000000001     
 chl2c          28  0.28776342500000002        3.1209236063453518E-002  0.28776342500000002        0.0000000000000000        4.0604621424307586E-009
 chl          28   9.6122000762248011E-011   3.3403133411498699E-010  0.28776342500000002     
 chl2c          29  0.68676297499999994        3.7743217595736761E-002  0.68676297499999994        0.0000000000000000        9.3416836997667442E-016
 chl          29   2.2940035958958589E-010   3.3403134405955115E-010  0.68676297499999994     
 chl2c          30  0.38930277499999999        2.5380056985171612E-002  0.38930277499999999        0.0000000000000000        4.6645633221519238E-006
 chl          30   1.3003932530791660E-010   3.3403133411498699E-010  0.38930277499999999     
 chl2c          31  0.63559385000000002        3.7576959810037038E-002  0.63559385000000002        0.0000000000000000        9.3635830406751060E-016
 chl          31   2.1230826799148474E-010   3.3403134405955115E-010  0.63559385000000002     
 chl2c          32  0.24722667500000001        2.0893126428578448E-002  0.24722667500000001        0.0000000000000000        5.4365783293634090E-016
 chl          32   8.2581456079062299E-011   3.3403133411498699E-010  0.24722667500000001     
 chl2c          33  0.60343137499999999        3.7458922634011876E-002  0.60343137499999999        0.0000000000000000        9.2987407353186765E-016
 chl          33   2.0156499323895302E-010   3.3403134405955115E-010  0.60343137499999999     
 chl2c          34  0.38241020000000003        2.5350269098008315E-002  0.38241020000000003        0.0000000000000000        5.3925575712415993E-016
 chl          34   1.2773698928517900E-010   3.3403133411498699E-010  0.38241020000000003     
 chl2c          35  0.49574644999999995        2.5740370148566064E-002  0.49574644999999995        0.0000000000000000        4.1661993393825500E-006
 chl          35   1.6559484807626866E-010   3.3403133411498699E-010  0.49574644999999995     
 chl2c          36  0.69587337500000002        3.7770393924465726E-002  0.69587337500000002        0.0000000000000000        6.4219318544637065E-006
 chl          36   2.3244351874837933E-010   3.3403134406224310E-010  0.69587337500000002     
 chl2c          37  0.33194060000000003        2.1353674699533250E-002  0.33194060000000003        0.0000000000000000        9.1431500290042924E-007
 chl          37   1.1087856146492926E-010   3.3403133411498699E-010  0.33194060000000003     
 chl2c          38  0.38455722500000000        2.1543295686358745E-002  0.38455722500000000        0.0000000000000000        3.7942079419424270E-006
 chl          38   1.2845416291030722E-010   3.3403133411498699E-010  0.38455722500000000     
 chl2c          39  0.47091117500000002        2.5670077108751441E-002  0.47091117500000002        0.0000000000000000        2.8085482238098884E-006
 chl          39   1.5729908803490612E-010   3.3403133411498699E-010  0.47091117500000002     
 chl2c          40  0.66875547499999999        3.7687445774703773E-002  0.66875547499999999        0.0000000000000000        4.6586142638344498E-006
 chl          40   2.2338529016323380E-010   3.3403134406224310E-010  0.66875547499999999     
 chl2c          41  0.44304987499999998        2.5582381488167241E-002  0.44304987499999998        0.0000000000000000        5.3742518611259415E-016
 chl          41   1.4799254082572820E-010   3.3403133411498699E-010  0.44304987499999998     
 chl2c          42  0.76234377499999995        3.7949995630725070E-002  0.76234377499999995        0.0000000000000000        3.7002503292174724E-006
 chl          42   2.5464671579868201E-010   3.3403134405955115E-010  0.76234377499999995     
 chl2c          43  0.29539925000000000        2.1185090152268007E-002  0.29539925000000000        0.0000000000000000        5.4365991415858534E-016
 chl          43   9.8672605574066568E-011   3.3403133411498699E-010  0.29539925000000000     
 chl2c          44  0.62417262500000004        3.7536352708156646E-002  0.62417262500000004        0.0000000000000000        7.5523656916350528E-006
 chl          44   2.0849322085392821E-010   3.3403134405955115E-010  0.62417262500000004     
 chl2c          45  0.37662252499999999        4.6544927192009838E-002  0.37662252499999999        0.0000000000000000        4.9364008702795789E-020
 chl          45   1.2580372448350503E-010   3.3403133411498699E-010  0.37662252499999999     
 chl2c          46  0.51876034999999998        3.7083195475449568E-002  0.51876034999999998        0.0000000000000000        9.3633137910854450E-016
 chl          46   1.7328221695530317E-010   3.3403134405955115E-010  0.51876034999999998     
 chl2c          47  0.61962282499999999        3.7519784612651236E-002  0.61962282499999999        0.0000000000000000        8.0414597305972948E-006
 chl          47   2.0697344504472605E-010   3.3403134405955115E-010  0.61962282499999999     
 chl2c          48  0.71424949999999998        3.7823212136301673E-002  0.71424949999999998        0.0000000000000000        5.6003189895959458E-006
 chl          48   2.3858172047886238E-010   3.3403134405955115E-010  0.71424949999999998     
 chl2c          49  0.53276120000000005        3.7152990741888416E-002  0.53276120000000005        0.0000000000000000        8.0118025551405221E-006
 chl          49   1.7795893969877934E-010   3.3403134405955115E-010  0.53276120000000005     
 chl2c          50  0.38132569999999999        2.1533072915600981E-002  0.38132569999999999        0.0000000000000000        5.4081513993017158E-016
 chl          50   1.2737473230333128E-010   3.3403133411498699E-010  0.38132569999999999     
 chl2c          51  0.22275920000000002        2.0700971146093840E-002  0.22275920000000002        0.0000000000000000        3.9520872258602589E-006
 chl          51   7.4408552762387215E-011   3.3403133411498699E-010  0.22275920000000002     
 chl2c          52  0.63698869999999996        3.7581825176985564E-002  0.63698869999999996        0.0000000000000000        6.0449878582256042E-006
 chl          52   2.1277419161346095E-010   3.3403134406224310E-010  0.63698869999999996     
 chl2c          53  0.75269794999999995        3.7925801262726190E-002  0.75269794999999995        0.0000000000000000        2.8829633950611724E-006
 chl          53   2.5142470791139505E-010   3.3403134406224310E-010  0.75269794999999995     
 chl2c          54  0.51861124999999997        3.7082433371327092E-002  0.51861124999999997        0.0000000000000000        7.9712419395114908E-006
 chl          54   1.7323241288190389E-010   3.3403134405955115E-010  0.51861124999999997     
 chl2c          55  0.57808280000000001        3.7357235588660491E-002  0.57808280000000001        0.0000000000000000        9.3784989210644071E-016
 chl          55   1.9309777466170869E-010   3.3403134405955115E-010  0.57808280000000001     
 chl2c          56  0.61626080000000005        3.7507394187257688E-002  0.61626080000000005        0.0000000000000000        5.7960079843420567E-006
 chl          56   2.0585042331687321E-010   3.3403134406224310E-010  0.61626080000000005     
 chl2c          57  0.68163462500000005        3.7727617852646313E-002  0.68163462500000005        0.0000000000000000        9.3832720629413668E-016
 chl          57   2.2768732994627815E-010   3.3403134405955115E-010  0.68163462500000005     
 chl2c          58  0.69416802499999997        3.7765358178394853E-002  0.69416802499999997        0.0000000000000000        9.3738618585500426E-016
 chl          58   2.3187387839578276E-010   3.3403134406224310E-010  0.69416802499999997     
 chl2c          59  0.53705127500000005        3.7173699120809672E-002  0.53705127500000005        0.0000000000000000        9.3909778722087697E-016
 chl          59   1.7939195921714563E-010   3.3403134405955115E-010  0.53705127500000005     
 chl2c          60  0.64452155000000000        3.7607757740906807E-002  0.64452155000000000        0.0000000000000000        9.2749715373279702E-016
 chl          60   2.1529039962184519E-010   3.3403134405955115E-010  0.64452155000000000     
 chl2c          61  0.70794139999999994        3.7805373434125003E-002  0.70794139999999994        0.0000000000000000        7.3485683521010000E-006
 chl          61   2.3647461735740032E-010   3.3403134405955115E-010  0.70794139999999994     
 chl2c          62  0.76481592499999995        3.7956103087269030E-002  0.76481592499999995        0.0000000000000000        5.3986046577206867E-006
 chl          62   2.5547249138589885E-010   3.3403134405955115E-010  0.76481592499999995     
 chl2c          63  0.72597904999999996        3.7855601011927406E-002  0.72597904999999996        0.0000000000000000        9.2795546930101246E-016
 chl          63   2.4249975783253038E-010   3.3403134406224310E-010  0.72597904999999996     
 chl2c          64  0.48435739999999999        2.5708982294816416E-002  0.48435739999999999        0.0000000000000000        4.3704491385340677E-006
 chl          64   1.6179054851046639E-010   3.3403133411498699E-010  0.48435739999999999     
 chl2c          65  0.76379975000000000        3.7953597170552002E-002  0.76379975000000000        0.0000000000000000        9.3121321109996301E-016
 chl          65   2.5513305708690528E-010   3.3403134406224310E-010  0.76379975000000000     
 chl2c          66  0.35213202499999996        3.1840477731474713E-002  0.35213202499999996        0.0000000000000000        3.1233767507054844E-010
 chl          66   1.1762313009536194E-010   3.3403133411498699E-010  0.35213202499999996     
 chl2c          67  0.75736760000000003        3.7937587124568600E-002  0.75736760000000003        0.0000000000000000        8.0101929092113775E-006
 chl          67   2.5298451737515653E-010   3.3403134405955115E-010  0.75736760000000003     
 chl2c          68  0.72590779999999999        3.7855407263856986E-002  0.72590779999999999        0.0000000000000000        9.3841762495870255E-016
 chl          68   2.4247595809926594E-010   3.3403134406224310E-010  0.72590779999999999     
 chl2c          69  0.45524217500000003        2.1732330561541505E-002  0.45524217500000003        0.0000000000000000        5.3964157098890375E-016
 chl          69   1.5206515106065839E-010   3.3403133411498699E-010  0.45524217500000003     
 chl2c          70  0.48694062500000002        3.2658010878182209E-002  0.48694062500000002        0.0000000000000000        5.0237026812236076E-009
 chl          70   1.6265342660353559E-010   3.3403133411498699E-010  0.48694062500000002     
 chl2c          71  0.23986107500000001        4.3481058864416305E-002  0.23986107500000001        0.0000000000000000        4.5396239064426617E-020
 chl          71   8.0121114884504953E-011   3.3403133411498699E-010  0.23986107500000001     
 chl2c          72  0.62790522500000001        3.7549776402781669E-002  0.62790522500000001        0.0000000000000000        6.7166800372417355E-006
 chl          72   2.0974002625045516E-010   3.3403134406224310E-010  0.62790522500000001     
 chl2c          73  0.35362212500000001        3.1852614277819484E-002  0.35362212500000001        0.0000000000000000        2.7332097687197667E-010
 chl          73   1.1812087018632670E-010   3.3403133411498699E-010  0.35362212500000001     
 chl2c          74  0.64719590000000005        3.7616827685877569E-002  0.64719590000000005        0.0000000000000000        9.3433072553779784E-016
 chl          74   2.1618371634683088E-010   3.3403134405955115E-010  0.64719590000000005     
 chl2c          75  0.71554212500000003        3.7826830779512356E-002  0.71554212500000003        0.0000000000000000        6.7164061419126356E-006
 chl          75   2.3901349774690359E-010   3.3403134406224310E-010  0.71554212500000003     
 chl2c          76  0.55513977500000000        3.7257729557919804E-002  0.55513977500000000        0.0000000000000000        9.3441754948385655E-016
 chl          76   1.8543408518566123E-010   3.3403134406224310E-010  0.55513977500000000     
 chl2c          77  0.52973029999999999        3.7138172437479272E-002  0.52973029999999999        0.0000000000000000        9.2657655550035080E-016
 chl          77   1.7694652409806924E-010   3.3403134405955115E-010  0.52973029999999999     
 chl2c          78  0.45117492500000000        4.7515248899399322E-002  0.45117492500000000        0.0000000000000000        6.0765336646850945E-019
 chl          78   1.5070656211697919E-010   3.3403133411498699E-010  0.45117492500000000     
 prod   1.8420501116178151E-010   0.0000000000000000        10.000000000000000     
 dcdom   2.9987161993668489E-013  -1.0816391501242674E-015
 chl2c           1  0.60826437499999997        3.7477407714772232E-002  0.60826437499999997        0.0000000000000000        9.3244003291002329E-016
 chl           1   3.2060781272543235E-014   5.2708628994659163E-014  0.60826437499999997     
 chl2c           2  0.48302390000000001        3.2640259920490348E-002  0.48302390000000001        0.0000000000000000        8.6983067084559779E-021
 chl           2   1.4521770680383522E-016   3.0064290152896208E-016  0.48302390000000001     
 chl2c           3  0.75128689999999998        3.7922212503796585E-002  0.75128689999999998        0.0000000000000000        7.3792148634355154E-006
 chl           3   3.9599302480647600E-014   5.2708628994659163E-014  0.75128689999999998     
 chl2c           4  0.77318742499999993        3.7976509103863923E-002  0.77318742499999993        0.0000000000000000        9.3244003291002329E-016
 chl           4   4.0753649127660852E-014   5.2708628994659163E-014  0.77318742499999993     
 chl2c           5  0.48489679999999996        2.5710500362372445E-002  0.48489679999999996        0.0000000000000000        5.3956925969942491E-016
 chl           5   1.4578078089410881E-016   3.0064290152896208E-016  0.48489679999999996     
 chl2c           6  0.29222855000000003        3.1261039902252048E-002  0.29222855000000003        0.0000000000000000        1.3809765777239485E-019
 chl           6   8.7856439181601381E-017   3.0064290152896208E-016  0.29222855000000003     
 chl2c           7  0.22770740000000000        4.3064391842467263E-002  0.22770740000000000        0.0000000000000000        8.4876777238444929E-021
 chl           7   6.8458613435615976E-017   3.0064290152896208E-016  0.22770740000000000     
 chl2c           8  0.49578364999999996        4.7969800906495587E-002  0.49578364999999996        0.0000000000000000        9.0187539606090834E-021
 chl           8   1.4905383506661940E-016   3.0064290152896208E-016  0.49578364999999996     
 chl2c           9  0.28700202499999999        2.4803669054600401E-002  0.28700202499999999        0.0000000000000000        5.4184050196698271E-016
 chl           9   8.6285121540687709E-017   3.0064290152896208E-016  0.28700202499999999     
 chl2c          10  0.39094662499999999        2.5387016219684602E-002  0.39094662499999999        0.0000000000000000        5.4184836569590491E-016
 chl          10   1.1753532768295507E-016   3.0064290152896208E-016  0.39094662499999999     
 chl2c          11  0.49737575000000001        2.1820572217820047E-002  0.49737575000000001        0.0000000000000000        4.5421906954481661E-006
 chl          11   1.4953248863014366E-016   3.0064290152896208E-016  0.49737575000000001     
 chl2c          12  0.30768942500000002        4.5290941298723353E-002  0.30768942500000002        0.0000000000000000        2.4762993208231500E-011
 chl          12   9.2504641501777964E-017   3.0064290152896208E-016  0.30768942500000002     
 chl2c          13  0.75666275000000005        3.7935816987997487E-002  0.75666275000000005        0.0000000000000000        6.1927182070963988E-006
 chl          13   3.9882656163719635E-014   5.2708628994515237E-014  0.75666275000000005     
 chl2c          14  0.39804095000000000        4.6856526101924839E-002  0.39804095000000000        0.0000000000000000        3.6565297261940040E-010
 chl          14   1.1966818613534453E-016   3.0064290152896208E-016  0.39804095000000000     
 chl2c          15  0.25607262500000000        2.0954299823745293E-002  0.25607262500000000        0.0000000000000000        5.4323432145054931E-016
 chl          15   7.6986416982137836E-017   3.0064290152896208E-016  0.25607262500000000     
 chl2c          16  0.71433214999999994        3.7823443882273475E-002  0.71433214999999994        0.0000000000000000        3.9126580430159024E-006
 chl          16   3.7651468273307213E-014   5.2708628994659163E-014  0.71433214999999994     
 chl2c          17  0.62580860000000005        3.7542254757581245E-002  0.62580860000000005        0.0000000000000000        7.8712421856180665E-006
 chl          17   3.2985513319067062E-014   5.2708628994659163E-014  0.62580860000000005     
 chl2c          18  0.47925950000000000        2.5694475239060960E-002  0.47925950000000000        0.0000000000000000        2.4706915572262705E-006
 chl          18   1.4408596666531961E-016   3.0064290152896208E-016  0.47925950000000000     
 chl2c          19  0.63367130000000005        3.7570220750293731E-002  0.63367130000000005        0.0000000000000000        9.2840687192084850E-016
 chl          19   3.3399945456263370E-014   5.2708628994659163E-014  0.63367130000000005     
 chl2c          20  0.50678202500000002        3.7020645196759419E-002  0.50678202500000002        0.0000000000000000        7.0600251699585130E-006
 chl          20   2.6711785736814148E-014   5.2708628994515237E-014  0.50678202500000002     
 chl2c          21  0.71973185000000006        3.7838475073783531E-002  0.71973185000000006        0.0000000000000000        9.3329170702438187E-016
 chl          21   3.7936079057186092E-014   5.2708628994515237E-014  0.71973185000000006     
 chl2c          22  0.64616892500000001        3.7613353106285476E-002  0.64616892500000001        0.0000000000000000        9.3244003291002329E-016
 chl          22   3.4058678135702744E-014   5.2708628994659163E-014  0.64616892500000001     
 chl2c          23  0.41564179999999995        3.2286562315070731E-002  0.41564179999999995        0.0000000000000000        1.2416952195209246E-020
 chl          23   1.2495975674872053E-016   3.0064290152896208E-016  0.41564179999999995     
 chl2c          24  0.57597492500000003        3.7348402796863071E-002  0.57597492500000003        0.0000000000000000        6.5729401122376893E-006
 chl          24   3.0358848631968741E-014   5.2708628994515237E-014  0.57597492500000003     
 chl2c          25  0.31406487500000002        4.5426679235459781E-002  0.31406487500000002        0.0000000000000000        9.4572020305764114E-021
 chl          25   9.4421375288330794E-017   3.0064290152896208E-016  0.31406487500000002     
 chl2c          26  0.49427735000000000        4.7955660680174553E-002  0.49427735000000000        0.0000000000000000        7.2356441118925789E-011
 chl          26   1.4860097666404633E-016   3.0064290152896208E-016  0.49427735000000000     
 chl2c          27  0.30964730000000001        4.5333133499525620E-002  0.30964730000000001        0.0000000000000000        8.8019253470348817E-010
 chl          27   9.3093262722608984E-017   3.0064290152896208E-016  0.30964730000000001     
 chl2c          28  0.28776342500000002        3.1209236063453518E-002  0.28776342500000002        0.0000000000000000        8.6428407768472138E-010
 chl          28   8.6514031045911873E-017   3.0064290152896208E-016  0.28776342500000002     
 chl2c          29  0.68676297499999994        3.7743217595736761E-002  0.68676297499999994        0.0000000000000000        9.3416836997508960E-016
 chl          29   3.6198334856444541E-014   5.2708628994515237E-014  0.68676297499999994     
 chl2c          30  0.38930277499999999        2.5380056985171612E-002  0.38930277499999999        0.0000000000000000        4.5882838349466510E-006
 chl          30   1.1704111584927668E-016   3.0064290152896208E-016  0.38930277499999999     
 chl2c          31  0.63559385000000002        3.7576959810037038E-002  0.63559385000000002        0.0000000000000000        9.3635830406603681E-016
 chl          31   3.3501280430845571E-014   5.2708628994515237E-014  0.63559385000000002     
 chl2c          32  0.24722667500000001        2.0893126428578448E-002  0.24722667500000001        0.0000000000000000        5.4365783293594242E-016
 chl          32   7.4326944907357716E-017   3.0064290152896208E-016  0.24722667500000001     
 chl2c          33  0.60343137499999999        3.7458922634011876E-002  0.60343137499999999        0.0000000000000000        9.2987407353006688E-016
 chl          33   3.1806040468525196E-014   5.2708628994515237E-014  0.60343137499999999     
 chl2c          34  0.38241020000000003        2.5350269098008315E-002  0.38241020000000003        0.0000000000000000        5.3925575712353249E-016
 chl          34   1.1496891210227070E-016   3.0064290152896208E-016  0.38241020000000003     
 chl2c          35  0.49574644999999995        2.5740370148566064E-002  0.49574644999999995        0.0000000000000000        4.2585734692051069E-006
 chl          35   1.4904265115068250E-016   3.0064290152896208E-016  0.49574644999999995     
 chl2c          36  0.69587337500000002        3.7770393924465726E-002  0.69587337500000002        0.0000000000000000        6.6561121021736695E-006
 chl          36   3.6678531550136330E-014   5.2708628994659163E-014  0.69587337500000002     
 chl2c          37  0.33194060000000003        2.1353674699533250E-002  0.33194060000000003        0.0000000000000000        1.4073943127803763E-006
 chl          37   9.9795585119264597E-017   3.0064290152896208E-016  0.33194060000000003     
 chl2c          38  0.38455722500000000        2.1543295686358745E-002  0.38455722500000000        0.0000000000000000        3.9852057633210571E-006
 chl          38   1.1561439992792591E-016   3.0064290152896208E-016  0.38455722500000000     
 chl2c          39  0.47091117500000002        2.5670077108751441E-002  0.47091117500000002        0.0000000000000000        3.1703150268060412E-006
 chl          39   1.4157610201441284E-016   3.0064290152896208E-016  0.47091117500000002     
 chl2c          40  0.66875547499999999        3.7687445774703773E-002  0.66875547499999999        0.0000000000000000        3.9334889849564183E-006
 chl          40   3.5249184219922060E-014   5.2708628994659163E-014  0.66875547499999999     
 chl2c          41  0.44304987499999998        2.5582381488167241E-002  0.44304987499999998        0.0000000000000000        5.3742518611187254E-016
 chl          41   1.3319979994204395E-016   3.0064290152896208E-016  0.44304987499999998     
 chl2c          42  0.76234377499999995        3.7949995630725070E-002  0.76234377499999995        0.0000000000000000        2.9652306997701220E-006
 chl          42   4.0182095202753194E-014   5.2708628994515237E-014  0.76234377499999995     
 chl2c          43  0.29539925000000000        2.1185090152268007E-002  0.29539925000000000        0.0000000000000000        5.4365991415818696E-016
 chl          43   8.8809687629479255E-017   3.0064290152896208E-016  0.29539925000000000     
 chl2c          44  0.62417262500000004        3.7536352708156646E-002  0.62417262500000004        0.0000000000000000        7.2537081729359444E-006
 chl          44   3.2899283319657685E-014   5.2708628994515237E-014  0.62417262500000004     
 chl2c          45  0.37662252499999999        4.6544927192009838E-002  0.37662252499999999        0.0000000000000000        1.1432456354428721E-020
 chl          45   1.1322888869716406E-016   3.0064290152896208E-016  0.37662252499999999     
 chl2c          46  0.51876034999999998        3.7083195475449568E-002  0.51876034999999998        0.0000000000000000        9.3633137910706933E-016
 chl          46   2.7343146825214871E-014   5.2708628994515237E-014  0.51876034999999998     
 chl2c          47  0.61962282499999999        3.7519784612651236E-002  0.61962282499999999        0.0000000000000000        7.9081974971768152E-006
 chl          47   3.2659469599458441E-014   5.2708628994515237E-014  0.61962282499999999     
 chl2c          48  0.71424949999999998        3.7823212136301673E-002  0.71424949999999998        0.0000000000000000        4.9764662053799830E-006
 chl          48   3.7647111905018009E-014   5.2708628994515237E-014  0.71424949999999998     
 chl2c          49  0.53276120000000005        3.7152990741888416E-002  0.53276120000000005        0.0000000000000000        7.8790106671517681E-006
 chl          49   2.8081112433472735E-014   5.2708628994515237E-014  0.53276120000000005     
 chl2c          50  0.38132569999999999        2.1533072915600981E-002  0.38132569999999999        0.0000000000000000        5.4081513992962480E-016
 chl          50   1.1464286487556254E-016   3.0064290152896208E-016  0.38132569999999999     
 chl2c          51  0.22275920000000002        2.0700971146093840E-002  0.22275920000000002        0.0000000000000000        4.1079674798904025E-006
 chl          51   6.6970972230270378E-017   3.0064290152896208E-016  0.22275920000000002     
 chl2c          52  0.63698869999999996        3.7581825176985564E-002  0.63698869999999996        0.0000000000000000        5.4305379842919863E-006
 chl          52   3.3574801062090247E-014   5.2708628994659163E-014  0.63698869999999996     
 chl2c          53  0.75269794999999995        3.7925801262726190E-002  0.75269794999999995        0.0000000000000000        2.1323679828941324E-006
 chl          53   3.9673676991590513E-014   5.2708628994659163E-014  0.75269794999999995     
 chl2c          54  0.51861124999999997        3.7082433371327092E-002  0.51861124999999997        0.0000000000000000        7.8390748380894920E-006
 chl          54   2.7335287968631788E-014   5.2708628994515237E-014  0.51861124999999997     
 chl2c          55  0.57808280000000001        3.7357235588660491E-002  0.57808280000000001        0.0000000000000000        9.3784989210504285E-016
 chl          55   3.0469951833310552E-014   5.2708628994515237E-014  0.57808280000000001     
 chl2c          56  0.61626080000000005        3.7507394187257688E-002  0.61626080000000005        0.0000000000000000        6.0948002209519439E-006
 chl          56   3.2482261871151853E-014   5.2708628994659163E-014  0.61626080000000005     
 chl2c          57  0.68163462500000005        3.7727617852646313E-002  0.68163462500000005        0.0000000000000000        9.3832720629276288E-016
 chl          57   3.5928026558940522E-014   5.2708628994515237E-014  0.68163462500000005     
 chl2c          58  0.69416802499999997        3.7765358178394853E-002  0.69416802499999997        0.0000000000000000        9.3244003291002329E-016
 chl          58   3.6588644889680285E-014   5.2708628994659163E-014  0.69416802499999997     
 chl2c          59  0.53705127500000005        3.7173699120809672E-002  0.53705127500000005        0.0000000000000000        9.3909778721954261E-016
 chl          59   2.8307236405006380E-014   5.2708628994515237E-014  0.53705127500000005     
 chl2c          60  0.64452155000000000        3.7607757740906807E-002  0.64452155000000000        0.0000000000000000        9.2749715373087752E-016
 chl          60   3.3971847257919904E-014   5.2708628994515237E-014  0.64452155000000000     
 chl2c          61  0.70794139999999994        3.7805373434125003E-002  0.70794139999999994        0.0000000000000000        7.4132894205296997E-006
 chl          61   3.7314620602457708E-014   5.2708628994515237E-014  0.70794139999999994     
 chl2c          62  0.76481592499999995        3.7956103087269030E-002  0.76481592499999995        0.0000000000000000        4.7656063392265635E-006
 chl          62   4.0312398839921989E-014   5.2708628994515237E-014  0.76481592499999995     
 chl2c          63  0.72597904999999996        3.7855601011927406E-002  0.72597904999999996        0.0000000000000000        9.2795546929911584E-016
 chl          63   3.8265360404345115E-014   5.2708628994659163E-014  0.72597904999999996     
 chl2c          64  0.48435739999999999        2.5708982294816416E-002  0.48435739999999999        0.0000000000000000        4.3942781475188848E-006
 chl          64   1.4561861411302409E-016   3.0064290152896208E-016  0.48435739999999999     
 chl2c          65  0.76379975000000000        3.7953597170552002E-002  0.76379975000000000        0.0000000000000000        9.3121321109822949E-016
 chl          65   4.0258837648963421E-014   5.2708628994659163E-014  0.76379975000000000     
 chl2c          66  0.35213202499999996        3.1840477731474713E-002  0.35213202499999996        0.0000000000000000        7.3994664372555684E-011
 chl          66   1.0586599371726900E-016   3.0064290152896208E-016  0.35213202499999996     
 chl2c          67  0.75736760000000003        3.7937587124568600E-002  0.75736760000000003        0.0000000000000000        7.8774004632387954E-006
 chl          67   3.9919807840866420E-014   5.2708628994515237E-014  0.75736760000000003     
 chl2c          68  0.72590779999999999        3.7855407263856986E-002  0.72590779999999999        0.0000000000000000        9.3244003291002329E-016
 chl          68   3.8261604914529244E-014   5.2708628994659163E-014  0.72590779999999999     
 chl2c          69  0.45524217500000003        2.1732330561541505E-002  0.45524217500000003        0.0000000000000000        5.3964157098829632E-016
 chl          69   1.3686532839035552E-016   3.0064290152896208E-016  0.45524217500000003     
 chl2c          70  0.48694062500000002        3.2658010878182209E-002  0.48694062500000002        0.0000000000000000        1.0691168437160350E-009
 chl          70   1.4639524237232626E-016   3.0064290152896208E-016  0.48694062500000002     
 chl2c          71  0.23986107500000001        4.3481058864416305E-002  0.23986107500000001        0.0000000000000000        1.0513482680663746E-020
 chl          71   7.2112529551855987E-017   3.0064290152896208E-016  0.23986107500000001     
 chl2c          72  0.62790522500000001        3.7549776402781669E-002  0.62790522500000001        0.0000000000000000        6.1896770264946415E-006
 chl          72   3.3096023548332989E-014   5.2708628994659163E-014  0.62790522500000001     
 chl2c          73  0.35362212500000001        3.1852614277819484E-002  0.35362212500000001        0.0000000000000000        7.0894428272039487E-011
 chl          73   1.0631398170483732E-016   3.0064290152896208E-016  0.35362212500000001     
 chl2c          74  0.64719590000000005        3.7616827685877569E-002  0.64719590000000005        0.0000000000000000        9.3433072553622150E-016
 chl          74   3.4112808579871386E-014   5.2708628994515237E-014  0.64719590000000005     
 chl2c          75  0.71554212500000003        3.7826830779512356E-002  0.71554212500000003        0.0000000000000000        6.9012424377492987E-006
 chl          75   3.7715244396675034E-014   5.2708628994659163E-014  0.71554212500000003     
 chl2c          76  0.55513977500000000        3.7257729557919804E-002  0.55513977500000000        0.0000000000000000        9.3244003291002329E-016
 chl          76   2.9260656440653563E-014   5.2708628994659163E-014  0.55513977500000000     
 chl2c          77  0.52973029999999999        3.7138172437479272E-002  0.52973029999999999        0.0000000000000000        9.2657655549838535E-016
 chl          77   2.7921357849853255E-014   5.2708628994515237E-014  0.52973029999999999     
 chl2c          78  0.45117492500000000        4.7515248899399322E-002  0.45117492500000000        0.0000000000000000        1.3242112704921267E-019
 chl          78   1.3564253854911184E-016   3.0064290152896208E-016  0.45117492500000000     
 prod   4.2658018812613882E-011   0.0000000000000000        10.000000000000000     
 dcdom   7.0615027279431962E-014  -4.3899863928383664E-017
 chl2c           1  0.60826437499999997        3.7477407714772232E-002  0.60826437499999997        0.0000000000000000        9.3488744272421415E-016
 chl           1   1.6984833038942842E-018   2.7923438782589960E-018  0.60826437499999997     
 chl2c           2  0.48302390000000001        3.2640259920490348E-002  0.48302390000000001        0.0000000000000000        3.2059526168897315E-021
 chl           2   8.2026587490349390E-023   1.6981890024561805E-022  0.48302390000000001     
 chl2c           3  0.75128689999999998        3.7922212503796585E-002  0.75128689999999998        0.0000000000000000        7.4226764011757707E-006
 chl           3   2.0978513760311786E-018   2.7923438782589960E-018  0.75128689999999998     
 chl2c           4  0.77318742499999993        3.7976509103863923E-002  0.77318742499999993        0.0000000000000000        9.3488744272421415E-016
 chl           4   2.1590051729455863E-018   2.7923438782589960E-018  0.77318742499999993     
 chl2c           5  0.48489679999999996        2.5710500362372445E-002  0.48489679999999996        0.0000000000000000        5.3956925969933981E-016
 chl           5   8.2344641308619397E-023   1.6981890024561805E-022  0.48489679999999996     
 chl2c           6  0.29222855000000003        3.1261039902252048E-002  0.29222855000000003        0.0000000000000000        5.3654721412893196E-020
 chl           6   4.9625930981371610E-023   1.6981890024561805E-022  0.29222855000000003     
 chl2c           7  0.22770740000000000        4.3064391842467263E-002  0.22770740000000000        0.0000000000000000        3.1283199081974451E-021
 chl           7   3.8669020245789045E-023   1.6981890024561805E-022  0.22770740000000000     
 chl2c           8  0.49578364999999996        4.7969800906495587E-002  0.49578364999999996        0.0000000000000000        3.3240617335429455E-021
 chl           8   8.4193434202758412E-023   1.6981890024561805E-022  0.49578364999999996     
 chl2c           9  0.28700202499999999        2.4803669054600401E-002  0.28700202499999999        0.0000000000000000        5.4184050196691389E-016
 chl           9   4.8738368253765374E-023   1.6981890024561805E-022  0.28700202499999999     
 chl2c          10  0.39094662499999999        2.5387016219684602E-002  0.39094662499999999        0.0000000000000000        5.4184836569583628E-016
 chl          10   6.6390125912236050E-023   1.6981890024561805E-022  0.39094662499999999     
 chl2c          11  0.49737575000000001        2.1820572217820047E-002  0.49737575000000001        0.0000000000000000        4.4806811209638568E-006
 chl          11   8.4463802873839461E-023   1.6981890024561805E-022  0.49737575000000001     
 chl2c          12  0.30768942500000002        4.5290941298723353E-002  0.30768942500000002        0.0000000000000000        5.3752264454904212E-012
 chl          12   5.2251479770706580E-023   1.6981890024561805E-022  0.30768942500000002     
 chl2c          13  0.75666275000000005        3.7935816987997487E-002  0.75666275000000005        0.0000000000000000        5.6025632505739629E-006
 chl          13   2.1128625978671562E-018   2.7923438782564045E-018  0.75666275000000005     
 chl2c          14  0.39804095000000000        4.6856526101924839E-002  0.39804095000000000        0.0000000000000000        1.7944480803081425E-010
 chl          14   6.7594876381721039E-023   1.6981890024561805E-022  0.39804095000000000     
 chl2c          15  0.25607262500000000        2.0954299823745293E-002  0.25607262500000000        0.0000000000000000        5.4323432145049074E-016
 chl          15   4.3485971560508558E-023   1.6981890024561805E-022  0.25607262500000000     
 chl2c          16  0.71433214999999994        3.7823443882273475E-002  0.71433214999999994        0.0000000000000000        3.1287639596006419E-006
 chl          16   1.9946610060960868E-018   2.7923438782589960E-018  0.71433214999999994     
 chl2c          17  0.62580860000000005        3.7542254757581245E-002  0.62580860000000005        0.0000000000000000        7.7471906161303312E-006
 chl          17   1.7474728131718330E-018   2.7923438782589960E-018  0.62580860000000005     
 chl2c          18  0.47925950000000000        2.5694475239060960E-002  0.47925950000000000        0.0000000000000000        2.9037286834383720E-006
 chl          18   8.1387321222264787E-023   1.6981890024561805E-022  0.47925950000000000     
 chl2c          19  0.63367130000000005        3.7570220750293731E-002  0.63367130000000005        0.0000000000000000        9.2840687192058739E-016
 chl          19   1.7694281753834197E-018   2.7923438782589960E-018  0.63367130000000005     
 chl2c          20  0.50678202500000002        3.7020645196759419E-002  0.50678202500000002        0.0000000000000000        6.6221281774480810E-006
 chl          20   1.4151096851191343E-018   2.7923438782564045E-018  0.50678202500000002     
 chl2c          21  0.71973185000000006        3.7838475073783531E-002  0.71973185000000006        0.0000000000000000        9.3329170702415488E-016
 chl          21   2.0097388253336570E-018   2.7923438782564045E-018  0.71973185000000006     
 chl2c          22  0.64616892500000001        3.7613353106285476E-002  0.64616892500000001        0.0000000000000000        9.3488744272421415E-016
 chl          22   1.8043258420449462E-018   2.7923438782589960E-018  0.64616892500000001     
 chl2c          23  0.41564179999999995        3.2286562315070731E-002  0.41564179999999995        0.0000000000000000        4.5765608545390911E-021
 chl          23   7.0583833372109118E-023   1.6981890024561805E-022  0.41564179999999995     
 chl2c          24  0.57597492500000003        3.7348402796863071E-002  0.57597492500000003        0.0000000000000000        6.7715547792554821E-006
 chl          24   1.6083200558529418E-018   2.7923438782564045E-018  0.57597492500000003     
 chl2c          25  0.31406487500000002        4.5426679235459781E-002  0.31406487500000002        0.0000000000000000        3.4856632418054185E-021
 chl          25   5.3334151678277505E-023   1.6981890024561805E-022  0.31406487500000002     
 chl2c          26  0.49427735000000000        4.7955660680174553E-002  0.49427735000000000        0.0000000000000000        2.6095203847581878E-011
 chl          26   8.3937635993318439E-023   1.6981890024561805E-022  0.49427735000000000     
 chl2c          27  0.30964730000000001        4.5333133499525620E-002  0.30964730000000001        0.0000000000000000        3.3565759947787219E-010
 chl          27   5.2583963950024966E-023   1.6981890024561805E-022  0.30964730000000001     
 chl2c          28  0.28776342500000002        3.1209236063453518E-002  0.28776342500000002        0.0000000000000000        3.2529040999050959E-010
 chl          28   4.8867668364412397E-023   1.6981890024561805E-022  0.28776342500000002     
 chl2c          29  0.68676297499999994        3.7743217595736761E-002  0.68676297499999994        0.0000000000000000        9.3416836997486891E-016
 chl          29   1.9176783890544061E-018   2.7923438782564045E-018  0.68676297499999994     
 chl2c          30  0.38930277499999999        2.5380056985171612E-002  0.38930277499999999        0.0000000000000000        4.5039813041235884E-006
 chl          30   6.6110969113067286E-023   1.6981890024561805E-022  0.38930277499999999     
 chl2c          31  0.63559385000000002        3.7576959810037038E-002  0.63559385000000002        0.0000000000000000        9.3635830406583151E-016
 chl          31   1.7747965961049193E-018   2.7923438782564045E-018  0.63559385000000002     
 chl2c          32  0.24722667500000001        2.0893126428578448E-002  0.24722667500000001        0.0000000000000000        5.4365783293588700E-016
 chl          32   4.1983762059880836E-023   1.6981890024561805E-022  0.24722667500000001     
 chl2c          33  0.60343137499999999        3.7458922634011876E-002  0.60343137499999999        0.0000000000000000        9.2987407352981582E-016
 chl          33   1.6849879059290947E-018   2.7923438782564045E-018  0.60343137499999999     
 chl2c          34  0.38241020000000003        2.5350269098008315E-002  0.38241020000000003        0.0000000000000000        5.3925575712344502E-016
 chl          34   6.4940479606706856E-023   1.6981890024561805E-022  0.38241020000000003     
 chl2c          35  0.49574644999999995        2.5740370148566064E-002  0.49574644999999995        0.0000000000000000        4.3044650296252460E-006
 chl          35   8.4187116939669268E-023   1.6981890024561805E-022  0.49574644999999995     
 chl2c          36  0.69587337500000002        3.7770393924465726E-002  0.69587337500000002        0.0000000000000000        6.8419535497969647E-006
 chl          36   1.9431177587246767E-018   2.7923438782589960E-018  0.69587337500000002     
 chl2c          37  0.33194060000000003        2.1353674699533250E-002  0.33194060000000003        0.0000000000000000        1.9317691756926819E-006
 chl          37   5.6369787638870603E-023   1.6981890024561805E-022  0.33194060000000003     
 chl2c          38  0.38455722500000000        2.1543295686358745E-002  0.38455722500000000        0.0000000000000000        4.1233754072520097E-006
 chl          38   6.5305085031006700E-023   1.6981890024561805E-022  0.38455722500000000     
 chl2c          39  0.47091117500000002        2.5670077108751441E-002  0.47091117500000002        0.0000000000000000        3.4904054948377519E-006
 chl          39   7.9969617851871792E-023   1.6981890024561805E-022  0.47091117500000002     
 chl2c          40  0.66875547499999999        3.7687445774703773E-002  0.66875547499999999        0.0000000000000000        3.1504363236421794E-006
 chl          40   1.8673952566684371E-018   2.7923438782589960E-018  0.66875547499999999     
 chl2c          41  0.44304987499999998        2.5582381488167241E-002  0.44304987499999998        0.0000000000000000        5.3742518611177196E-016
 chl          41   7.5238242526458549E-023   1.6981890024561805E-022  0.44304987499999998     
 chl2c          42  0.76234377499999995        3.7949995630725070E-002  0.76234377499999995        0.0000000000000000        2.1542161286583027E-006
 chl          42   2.1287259732481275E-018   2.7923438782564045E-018  0.76234377499999995     
 chl2c          43  0.29539925000000000        2.1185090152268007E-002  0.29539925000000000        0.0000000000000000        5.4365991415813155E-016
 chl          43   5.0164375768380389E-023   1.6981890024561805E-022  0.29539925000000000     
 chl2c          44  0.62417262500000004        3.7536352708156646E-002  0.62417262500000004        0.0000000000000000        6.8777258826462555E-006
 chl          44   1.7429046083939803E-018   2.7923438782564045E-018  0.62417262500000004     
 chl2c          45  0.37662252499999999        4.6544927192009838E-002  0.37662252499999999        0.0000000000000000        4.2136969190174078E-021
 chl          45   6.3957623003227787E-023   1.6981890024561805E-022  0.37662252499999999     
 chl2c          46  0.51876034999999998        3.7083195475449568E-002  0.51876034999999998        0.0000000000000000        9.3633137910686363E-016
 chl          46   1.4485572876046496E-018   2.7923438782564045E-018  0.51876034999999998     
 chl2c          47  0.61962282499999999        3.7519784612651236E-002  0.61962282499999999        0.0000000000000000        7.7626467413878759E-006
 chl          47   1.7302000022166894E-018   2.7923438782564045E-018  0.61962282499999999     
 chl2c          48  0.71424949999999998        3.7823212136301673E-002  0.71424949999999998        0.0000000000000000        4.2438341109637594E-006
 chl          48   1.9944302188726975E-018   2.7923438782564045E-018  0.71424949999999998     
 chl2c          49  0.53276120000000005        3.7152990741888416E-002  0.53276120000000005        0.0000000000000000        7.7337115341539032E-006
 chl          49   1.4876524753925361E-018   2.7923438782564045E-018  0.53276120000000005     
 chl2c          50  0.38132569999999999        2.1533072915600981E-002  0.38132569999999999        0.0000000000000000        5.4081513992954858E-016
 chl          50   6.4756311009390473E-023   1.6981890024561805E-022  0.38132569999999999     
 chl2c          51  0.22275920000000002        2.0700971146093840E-002  0.22275920000000002        0.0000000000000000        4.2122282196085670E-006
 chl          51   3.7828722363593683E-023   1.6981890024561805E-022  0.22275920000000002     
 chl2c          52  0.63698869999999996        3.7581825176985564E-002  0.63698869999999996        0.0000000000000000        4.7566887910263235E-006
 chl          52   1.7786914969651561E-018   2.7923438782589960E-018  0.63698869999999996     
 chl2c          53  0.75269794999999995        3.7925801262726190E-002  0.75269794999999995        0.0000000000000000        1.3397588173701541E-006
 chl          53   2.1017915128605957E-018   2.7923438782589960E-018  0.75269794999999995     
 chl2c          54  0.51861124999999997        3.7082433371327092E-002  0.51861124999999997        0.0000000000000000        7.6941283962552261E-006
 chl          54   1.4481409491324017E-018   2.7923438782564045E-018  0.51861124999999997     
 chl2c          55  0.57808280000000001        3.7357235588660491E-002  0.57808280000000001        0.0000000000000000        9.3784989210484780E-016
 chl          55   1.6142059677053215E-018   2.7923438782564045E-018  0.57808280000000001     
 chl2c          56  0.61626080000000005        3.7507394187257688E-002  0.61626080000000005        0.0000000000000000        6.4037976874563383E-006
 chl          56   1.7208120722909915E-018   2.7923438782589960E-018  0.61626080000000005     
 chl2c          57  0.68163462500000005        3.7727617852646313E-002  0.68163462500000005        0.0000000000000000        9.3832720629257158E-016
 chl          57   1.9033582723263500E-018   2.7923438782564045E-018  0.68163462500000005     
 chl2c          58  0.69416802499999997        3.7765358178394853E-002  0.69416802499999997        0.0000000000000000        9.3488744272421415E-016
 chl          58   1.9383558350918875E-018   2.7923438782589960E-018  0.69416802499999997     
 chl2c          59  0.53705127500000005        3.7173699120809672E-002  0.53705127500000005        0.0000000000000000        9.3909778721935684E-016
 chl          59   1.4996318400560470E-018   2.7923438782564045E-018  0.53705127500000005     
 chl2c          60  0.64452155000000000        3.7607757740906807E-002  0.64452155000000000        0.0000000000000000        9.2749715373060990E-016
 chl          60   1.7997258045468291E-018   2.7923438782564045E-018  0.64452155000000000     
 chl2c          61  0.70794139999999994        3.7805373434125003E-002  0.70794139999999994        0.0000000000000000        7.4329341094676939E-006
 chl          61   1.9768158344542685E-018   2.7923438782564045E-018  0.70794139999999994     
 chl2c          62  0.76481592499999995        3.7956103087269030E-002  0.76481592499999995        0.0000000000000000        4.0260961326121704E-006
 chl          62   2.1356290661667593E-018   2.7923438782564045E-018  0.76481592499999995     
 chl2c          63  0.72597904999999996        3.7855601011927406E-002  0.72597904999999996        0.0000000000000000        9.2795546929885158E-016
 chl          63   2.0271831560117814E-018   2.7923438782589960E-018  0.72597904999999996     
 chl2c          64  0.48435739999999999        2.5708982294816416E-002  0.48435739999999999        0.0000000000000000        4.3810855439179728E-006
 chl          64   8.2253040993826917E-023   1.6981890024561805E-022  0.48435739999999999     
 chl2c          65  0.76379975000000000        3.7953597170552002E-002  0.76379975000000000        0.0000000000000000        9.3121321109798790E-016
 chl          65   2.1327915561282517E-018   2.7923438782589960E-018  0.76379975000000000     
 chl2c          66  0.35213202499999996        3.1840477731474713E-002  0.35213202499999996        0.0000000000000000        2.7583948420687963E-011
 chl          66   5.9798673226762476E-023   1.6981890024561805E-022  0.35213202499999996     
 chl2c          67  0.75736760000000003        3.7937587124568600E-002  0.75736760000000003        0.0000000000000000        7.7318832690206606E-006
 chl          67   2.1148307814497455E-018   2.7923438782564045E-018  0.75736760000000003     
 chl2c          68  0.72590779999999999        3.7855407263856986E-002  0.72590779999999999        0.0000000000000000        9.3488744272421415E-016
 chl          68   2.0269842015104555E-018   2.7923438782589960E-018  0.72590779999999999     
 chl2c          69  0.45524217500000003        2.1732330561541505E-002  0.45524217500000003        0.0000000000000000        5.3964157098821162E-016
 chl          69   7.7308725503923201E-023   1.6981890024561805E-022  0.45524217500000003     
 chl2c          70  0.48694062500000002        3.2658010878182209E-002  0.48694062500000002        0.0000000000000000        4.0218136037153351E-010
 chl          70   8.2691721422413905E-023   1.6981890024561805E-022  0.48694062500000002     
 chl2c          71  0.23986107500000001        4.3481058864416305E-002  0.23986107500000001        0.0000000000000000        3.8749837798812586E-021
 chl          71   4.0732943968231710E-023   1.6981890024561805E-022  0.23986107500000001     
 chl2c          72  0.62790522500000001        3.7549776402781669E-002  0.62790522500000001        0.0000000000000000        5.6134302480363851E-006
 chl          72   1.7533273111555877E-018   2.7923438782589960E-018  0.62790522500000001     
 chl2c          73  0.35362212500000001        3.1852614277819484E-002  0.35362212500000001        0.0000000000000000        2.8576638850516587E-011
 chl          73   6.0051720370018483E-023   1.6981890024561805E-022  0.35362212500000001     
 chl2c          74  0.64719590000000005        3.7616827685877569E-002  0.64719590000000005        0.0000000000000000        9.3433072553600161E-016
 chl          74   1.8071935093976441E-018   2.7923438782564045E-018  0.64719590000000005     
 chl2c          75  0.71554212500000003        3.7826830779512356E-002  0.71554212500000003        0.0000000000000000        7.0372323131240225E-006
 chl          75   1.9980396723801833E-018   2.7923438782589960E-018  0.71554212500000003     
 chl2c          76  0.55513977500000000        3.7257729557919804E-002  0.55513977500000000        0.0000000000000000        9.3441754948206524E-016
 chl          76   1.5501411522993264E-018   2.7923438782589960E-018  0.55513977500000000     
 chl2c          77  0.52973029999999999        3.7138172437479272E-002  0.52973029999999999        0.0000000000000000        9.2657655549811161E-016
 chl          77   1.4791891603319285E-018   2.7923438782564045E-018  0.52973029999999999     
 chl2c          78  0.45117492500000000        4.7515248899399322E-002  0.45117492500000000        0.0000000000000000        5.1448963566601526E-020
 chl          78   7.6618029581899209E-023   1.6981890024561805E-022  0.45117492500000000     
 prod   1.5722396181858442E-011   0.0000000000000000        10.000000000000000     
 dcdom   2.5879156104641796E-014  -1.6140114874010421E-017
 chl2c           1  0.60826437499999997        3.7477407714772232E-002  0.60826437499999997        0.0000000000000000        9.3573033252084354E-016
 chl           1   2.4424873649011713E-023   4.0155029051326101E-023  0.60826437499999997     
 chl2c           2  0.48302390000000001        3.2640259920490348E-002  0.48302390000000001        0.0000000000000000        1.3743191276726925E-021
 chl           2   2.6303193413977274E-029   5.4455262801648678E-029  0.48302390000000001     
 chl2c           3  0.75128689999999998        3.7922212503796585E-002  0.75128689999999998        0.0000000000000000        7.4349762851880187E-006
 chl           3   3.0167947295380728E-023   4.0155029051326101E-023  0.75128689999999998     
 chl2c           4  0.77318742499999993        3.7976509103863923E-002  0.77318742499999993        0.0000000000000000        9.3870557761868455E-016
 chl           4   3.1047363512995019E-023   4.0155029051326101E-023  0.77318742499999993     
 chl2c           5  0.48489679999999996        2.5710500362372445E-002  0.48489679999999996        0.0000000000000000        5.3956925969931131E-016
 chl           5   2.6405182675678475E-029   5.4455262801648678E-029  0.48489679999999996     
 chl2c           6  0.29222855000000003        3.1261039902252048E-002  0.29222855000000003        0.0000000000000000        2.5561400111091461E-020
 chl           6   1.5913382488394732E-029   5.4455262801648678E-029  0.29222855000000003     
 chl2c           7  0.22770740000000000        4.3064391842467263E-002  0.22770740000000000        0.0000000000000000        1.3410396394125298E-021
 chl           7   1.2399866308880136E-029   5.4455262801648678E-029  0.22770740000000000     
 chl2c           8  0.49578364999999996        4.7969800906495587E-002  0.49578364999999996        0.0000000000000000        1.4249499999537802E-021
 chl           8   2.6998028953510605E-029   5.4455262801648678E-029  0.49578364999999996     
 chl2c           9  0.28700202499999999        2.4803669054600401E-002  0.28700202499999999        0.0000000000000000        5.4184050196689101E-016
 chl           9   1.5628770695980343E-029   5.4455262801648678E-029  0.28700202499999999     
 chl2c          10  0.39094662499999999        2.5387016219684602E-002  0.39094662499999999        0.0000000000000000        5.4184836569581330E-016
 chl          10   2.1289101205792594E-029   5.4455262801648678E-029  0.39094662499999999     
 chl2c          11  0.49737575000000001        2.1820572217820047E-002  0.49737575000000001        0.0000000000000000        4.4271447596443657E-006
 chl          11   2.7084727177417110E-029   5.4455262801648678E-029  0.49737575000000001     
 chl2c          12  0.30768942500000002        4.5290941298723353E-002  0.30768942500000002        0.0000000000000000        1.1747171968532653E-012
 chl          12   1.6755308499663172E-029   5.4455262801648678E-029  0.30768942500000002     
 chl2c          13  0.75666275000000005        3.7935816987997487E-002  0.75666275000000005        0.0000000000000000        5.1320892168251636E-006
 chl          13   3.0383814708305297E-023   4.0155029051324773E-023  0.75666275000000005     
 chl2c          14  0.39804095000000000        4.6856526101924839E-002  0.39804095000000000        0.0000000000000000        9.7153334690330321E-011
 chl          14   2.1675424538067902E-029   5.4455262801648678E-029  0.39804095000000000     
 chl2c          15  0.25607262500000000        2.0954299823745293E-002  0.25607262500000000        0.0000000000000000        5.4323432145047121E-016
 chl          15   1.3944502090683030E-029   5.4455262801648678E-029  0.25607262500000000     
 chl2c          16  0.71433214999999994        3.7823443882273475E-002  0.71433214999999994        0.0000000000000000        2.5490210812516118E-006
 chl          16   2.8684028235546232E-023   4.0155029051326101E-023  0.71433214999999994     
 chl2c          17  0.62580860000000005        3.7542254757581245E-002  0.62580860000000005        0.0000000000000000        7.6726697318571972E-006
 chl          17   2.5129362513569717E-023   4.0155029051326101E-023  0.62580860000000005     
 chl2c          18  0.47925950000000000        2.5694475239060960E-002  0.47925950000000000        0.0000000000000000        3.1724809278757991E-006
 chl          18   2.6098202022686745E-029   5.4455262801648678E-029  0.47925950000000000     
 chl2c          19  0.63367130000000005        3.7570220750293731E-002  0.63367130000000005        0.0000000000000000        9.2840687192050002E-016
 chl          19   2.5445089460491580E-023   4.0155029051326101E-023  0.63367130000000005     
 chl2c          20  0.50678202500000002        3.7020645196759419E-002  0.50678202500000002        0.0000000000000000        6.2630389074973250E-006
 chl          20   2.0349846936564198E-023   4.0155029051324773E-023  0.50678202500000002     
 chl2c          21  0.71973185000000006        3.7838475073783531E-002  0.71973185000000006        0.0000000000000000        9.3329170702407895E-016
 chl          21   2.8900853345913724E-023   4.0155029051324773E-023  0.71973185000000006     
 chl2c          22  0.64616892500000001        3.7613353106285476E-002  0.64616892500000001        0.0000000000000000        9.3808794980094929E-016
 chl          22   2.5946931955439158E-023   4.0155029051326101E-023  0.64616892500000001     
 chl2c          23  0.41564179999999995        3.2286562315070731E-002  0.41564179999999995        0.0000000000000000        1.9618705605683242E-021
 chl          23   2.2633883450350297E-029   5.4455262801648678E-029  0.41564179999999995     
 chl2c          24  0.57597492500000003        3.7348402796863071E-002  0.57597492500000003        0.0000000000000000        6.8725299228592918E-006
 chl          24   2.3128289846209607E-023   4.0155029051324773E-023  0.57597492500000003     
 chl2c          25  0.31406487500000002        4.5426679235459781E-002  0.31406487500000002        0.0000000000000000        1.4942251577867428E-021
 chl          25   1.7102485304891944E-029   5.4455262801648678E-029  0.31406487500000002     
 chl2c          26  0.49427735000000000        4.7955660680174553E-002  0.49427735000000000        0.0000000000000000        1.0982997335566741E-011
 chl          26   2.6916002991152483E-029   5.4455262801648678E-029  0.49427735000000000     
 chl2c          27  0.30964730000000001        4.5333133499525620E-002  0.30964730000000001        0.0000000000000000        1.5767572697410900E-010
 chl          27   1.6861925097320950E-029   5.4455262801648678E-029  0.30964730000000001     
 chl2c          28  0.28776342500000002        3.1209236063453518E-002  0.28776342500000002        0.0000000000000000        1.5054258979358888E-010
 chl          28   1.5670232933077520E-029   5.4455262801648678E-029  0.28776342500000002     
 chl2c          29  0.68676297499999994        3.7743217595736761E-002  0.68676297499999994        0.0000000000000000        9.3416836997479496E-016
 chl          29   2.7576987212499227E-023   4.0155029051324773E-023  0.68676297499999994     
 chl2c          30  0.38930277499999999        2.5380056985171612E-002  0.38930277499999999        0.0000000000000000        4.4424726515182040E-006
 chl          30   2.1199584922036106E-029   5.4455262801648678E-029  0.38930277499999999     
 chl2c          31  0.63559385000000002        3.7576959810037038E-002  0.63559385000000002        0.0000000000000000        9.3635830406576288E-016
 chl          31   2.5522289511593360E-023   4.0155029051324773E-023  0.63559385000000002     
 chl2c          32  0.24722667500000001        2.0893126428578448E-002  0.24722667500000001        0.0000000000000000        5.4365783293586837E-016
 chl          32   1.3462793558702787E-029   5.4455262801648678E-029  0.24722667500000001     
 chl2c          33  0.60343137499999999        3.7458922634011876E-002  0.60343137499999999        0.0000000000000000        9.2987407352973201E-016
 chl          33   2.4230804393605854E-023   4.0155029051324773E-023  0.60343137499999999     
 chl2c          34  0.38241020000000003        2.5350269098008315E-002  0.38241020000000003        0.0000000000000000        5.3925575712341574E-016
 chl          34   2.0824247939031034E-029   5.4455262801648678E-029  0.38241020000000003     
 chl2c          35  0.49574644999999995        2.5740370148566064E-002  0.49574644999999995        0.0000000000000000        4.3081132940772710E-006
 chl          35   2.6996003217734381E-029   5.4455262801648678E-029  0.49574644999999995     
 chl2c          36  0.69587337500000002        3.7770393924465726E-002  0.69587337500000002        0.0000000000000000        6.9342948628517188E-006
 chl          36   2.7942815589169344E-023   4.0155029051326101E-023  0.69587337500000002     
 chl2c          37  0.33194060000000003        2.1353674699533250E-002  0.33194060000000003        0.0000000000000000        2.2891420591759427E-006
 chl          37   1.8075912607536945E-029   5.4455262801648678E-029  0.33194060000000003     
 chl2c          38  0.38455722500000000        2.1543295686358745E-002  0.38455722500000000        0.0000000000000000        4.1827540465404531E-006
 chl          38   2.0941164749647742E-029   5.4455262801648678E-029  0.38455722500000000     
 chl2c          39  0.47091117500000002        2.5670077108751441E-002  0.47091117500000002        0.0000000000000000        3.6724747202673234E-006
 chl          39   2.5643591790858169E-029   5.4455262801648678E-029  0.47091117500000002     
 chl2c          40  0.66875547499999999        3.7687445774703773E-002  0.66875547499999999        0.0000000000000000        2.5709951988906553E-006
 chl          40   2.6853895526858388E-023   4.0155029051326101E-023  0.66875547499999999     
 chl2c          41  0.44304987499999998        2.5582381488167241E-002  0.44304987499999998        0.0000000000000000        5.3742518611173834E-016
 chl          41   2.4126397377362597E-029   5.4455262801648678E-029  0.44304987499999998     
 chl2c          42  0.76234377499999995        3.7949995630725070E-002  0.76234377499999995        0.0000000000000000        1.5690208573918629E-006
 chl          42   3.0611936432221593E-023   4.0155029051324773E-023  0.76234377499999995     
 chl2c          43  0.29539925000000000        2.1185090152268007E-002  0.29539925000000000        0.0000000000000000        5.4365991415811301E-016
 chl          43   1.6086043790159917E-029   5.4455262801648678E-029  0.29539925000000000     
 chl2c          44  0.62417262500000004        3.7536352708156646E-002  0.62417262500000004        0.0000000000000000        6.5670371012006864E-006
 chl          44   2.5063669889916645E-023   4.0155029051324773E-023  0.62417262500000004     
 chl2c          45  0.37662252499999999        4.6544927192009838E-002  0.37662252499999999        0.0000000000000000        1.8063181261639454E-021
 chl          45   2.0509078575895499E-029   5.4455262801648678E-029  0.37662252499999999     
 chl2c          46  0.51876034999999998        3.7083195475449568E-002  0.51876034999999998        0.0000000000000000        9.3633137910679500E-016
 chl          46   2.0830836924925408E-023   4.0155029051324773E-023  0.51876034999999998     
 chl2c          47  0.61962282499999999        3.7519784612651236E-002  0.61962282499999999        0.0000000000000000        7.6560712839341871E-006
 chl          47   2.4880972538738926E-023   4.0155029051324773E-023  0.61962282499999999     
 chl2c          48  0.71424949999999998        3.7823212136301673E-002  0.71424949999999998        0.0000000000000000        3.6819405003460805E-006
 chl          48   2.8680709422394193E-023   4.0155029051324773E-023  0.71424949999999998     
 chl2c          49  0.53276120000000005        3.7152990741888416E-002  0.53276120000000005        0.0000000000000000        7.6268573913458756E-006
 chl          49   2.1393041463418649E-023   4.0155029051324773E-023  0.53276120000000005     
 chl2c          50  0.38132569999999999        2.1533072915600981E-002  0.38132569999999999        0.0000000000000000        5.4081513992952323E-016
 chl          50   2.0765191206522642E-029   5.4455262801648678E-029  0.38132569999999999     
 chl2c          51  0.22275920000000002        2.0700971146093840E-002  0.22275920000000002        0.0000000000000000        4.2505368773568584E-006
 chl          51   1.2130410777485019E-029   5.4455262801648678E-029  0.22275920000000002     
 chl2c          52  0.63698869999999996        3.7581825176985564E-002  0.63698869999999996        0.0000000000000000        4.2378235738400663E-006
 chl          52   2.5578299753866446E-023   4.0155029051326101E-023  0.63698869999999996     
 chl2c          53  0.75269794999999995        3.7925801262726190E-002  0.75269794999999995        0.0000000000000000        7.7947185491076623E-007
 chl          53   3.0224608049123597E-023   4.0155029051326101E-023  0.75269794999999995     
 chl2c          54  0.51861124999999997        3.7082433371327092E-002  0.51861124999999997        0.0000000000000000        7.5871097295829914E-006
 chl          54   2.0824849810093853E-023   4.0155029051324773E-023  0.51861124999999997     
 chl2c          55  0.57808280000000001        3.7357235588660491E-002  0.57808280000000001        0.0000000000000000        9.3784989210478272E-016
 chl          55   2.3212931628071169E-023   4.0155029051324773E-023  0.57808280000000001     
 chl2c          56  0.61626080000000005        3.7507394187257688E-002  0.61626080000000005        0.0000000000000000        6.5954218485570386E-006
 chl          56   2.4745970327193467E-023   4.0155029051326101E-023  0.61626080000000005     
 chl2c          57  0.68163462500000005        3.7727617852646313E-002  0.68163462500000005        0.0000000000000000        9.3832720629250769E-016
 chl          57   2.7371058169263869E-023   4.0155029051324773E-023  0.68163462500000005     
 chl2c          58  0.69416802499999997        3.7765358178394853E-002  0.69416802499999997        0.0000000000000000        9.3738618585331827E-016
 chl          58   2.7874337210376663E-023   4.0155029051326101E-023  0.69416802499999997     
 chl2c          59  0.53705127500000005        3.7173699120809672E-002  0.53705127500000005        0.0000000000000000        9.3909778721929471E-016
 chl          59   2.1565309549676012E-023   4.0155029051324773E-023  0.53705127500000005     
 chl2c          60  0.64452155000000000        3.7607757740906807E-002  0.64452155000000000        0.0000000000000000        9.2749715373052056E-016
 chl          60   2.5880781564454873E-023   4.0155029051324773E-023  0.64452155000000000     
 chl2c          61  0.70794139999999994        3.7805373434125003E-002  0.70794139999999994        0.0000000000000000        7.4181885404746611E-006
 chl          61   2.8427407483635532E-023   4.0155029051324773E-023  0.70794139999999994     
 chl2c          62  0.76481592499999995        3.7956103087269030E-002  0.76481592499999995        0.0000000000000000        3.4618305205687498E-006
 chl          62   3.0711205687290829E-023   4.0155029051324773E-023  0.76481592499999995     
 chl2c          63  0.72597904999999996        3.7855601011927406E-002  0.72597904999999996        0.0000000000000000        9.2795546929876322E-016
 chl          63   2.9151709843404125E-023   4.0155029051326101E-023  0.72597904999999996     
 chl2c          64  0.48435739999999999        2.5708982294816416E-002  0.48435739999999999        0.0000000000000000        4.3518178353016682E-006
 chl          64   2.6375809506923271E-029   5.4455262801648678E-029  0.48435739999999999     
 chl2c          65  0.76379975000000000        3.7953597170552002E-002  0.76379975000000000        0.0000000000000000        9.3121321109790724E-016
 chl          65   3.0670401150645614E-023   4.0155029051326101E-023  0.76379975000000000     
 chl2c          66  0.35213202499999996        3.1840477731474713E-002  0.35213202499999996        0.0000000000000000        1.1838916774190179E-011
 chl          66   1.9175441962251721E-029   5.4455262801648678E-029  0.35213202499999996     
 chl2c          67  0.75736760000000003        3.7937587124568600E-002  0.75736760000000003        0.0000000000000000        7.6245821274786082E-006
 chl          67   3.0412117980532123E-023   4.0155029051324773E-023  0.75736760000000003     
 chl2c          68  0.72590779999999999        3.7855407263856986E-002  0.72590779999999999        0.0000000000000000        9.3869583542028972E-016
 chl          68   2.9148848797584216E-023   4.0155029051326101E-023  0.72590779999999999     
 chl2c          69  0.45524217500000003        2.1732330561541505E-002  0.45524217500000003        0.0000000000000000        5.3964157098818322E-016
 chl          69   2.4790332278019140E-029   5.4455262801648678E-029  0.45524217500000003     
 chl2c          70  0.48694062500000002        3.2658010878182209E-002  0.48694062500000002        0.0000000000000000        1.8603077326040701E-010
 chl          70   2.6516479703174059E-029   5.4455262801648678E-029  0.48694062500000002     
 chl2c          71  0.23986107500000001        4.3481058864416305E-002  0.23986107500000001        0.0000000000000000        1.6611187555961897E-021
 chl          71   1.3061697875010963E-029   5.4455262801648678E-029  0.23986107500000001     
 chl2c          72  0.62790522500000001        3.7549776402781669E-002  0.62790522500000001        0.0000000000000000        5.1621571926951854E-006
 chl          72   2.5213552551354453E-023   4.0155029051326101E-023  0.62790522500000001     
 chl2c          73  0.35362212500000001        3.1852614277819484E-002  0.35362212500000001        0.0000000000000000        1.2838747717415503E-011
 chl          73   1.9256585749352459E-029   5.4455262801648678E-029  0.35362212500000001     
 chl2c          74  0.64719590000000005        3.7616827685877569E-002  0.64719590000000005        0.0000000000000000        9.3433072553592844E-016
 chl          74   2.5988170166398283E-023   4.0155029051324773E-023  0.64719590000000005     
 chl2c          75  0.71554212500000003        3.7826830779512356E-002  0.71554212500000003        0.0000000000000000        7.0966038413587970E-006
 chl          75   2.8732614816822614E-023   4.0155029051326101E-023  0.71554212500000003     
 chl2c          76  0.55513977500000000        3.7257729557919804E-002  0.55513977500000000        0.0000000000000000        9.3441754948199207E-016
 chl          76   2.2291653792671636E-023   4.0155029051326101E-023  0.55513977500000000     
 chl2c          77  0.52973029999999999        3.7138172437479272E-002  0.52973029999999999        0.0000000000000000        9.2657655549802011E-016
 chl          77   2.1271335585866988E-023   4.0155029051324773E-023  0.52973029999999999     
 chl2c          78  0.45117492500000000        4.7515248899399322E-002  0.45117492500000000        0.0000000000000000        2.4510522316906302E-020
 chl          78   2.4568849110389132E-029   5.4455262801648678E-029  0.45117492500000000     
 prod   6.7398120242697357E-012   0.0000000000000000        10.000000000000000     
 dcdom   1.1013130124556797E-014  -6.8777921209452626E-018
 chl2c           1  0.60826437499999997        3.7477407714772232E-002  0.60826437499999997        0.0000000000000000        9.3573033252081711E-016
 chl           1   1.5903906214943941E-029   2.6146371328986581E-029  0.60826437499999997     
 chl2c           2  0.48302390000000001        3.2640259920490348E-002  0.48302390000000001        0.0000000000000000        6.8226195588798915E-022
 chl           2   6.6366759673356945E-036   1.3739850072295996E-035  0.48302390000000001     
 chl2c           3  0.75128689999999998        3.7922212503796585E-002  0.75128689999999998        0.0000000000000000        7.4172105622494257E-006
 chl           3   1.9643426262003207E-029   2.6146371328986581E-029  0.75128689999999998     
 chl2c           4  0.77318742499999993        3.7976509103863923E-002  0.77318742499999993        0.0000000000000000        9.3912022546873634E-016
 chl           4   2.0216045520952961E-029   2.6146371328986581E-029  0.77318742499999993     
 chl2c           5  0.48489679999999996        2.5710500362372445E-002  0.48489679999999996        0.0000000000000000        5.3956925969930056E-016
 chl           5   6.6624093325360967E-036   1.3739850072295996E-035  0.48489679999999996     
 chl2c           6  0.29222855000000003        3.1261039902252048E-002  0.29222855000000003        0.0000000000000000        1.3813717629939693E-020
 chl           6   4.0151764638444542E-036   1.3739850072295996E-035  0.29222855000000003     
 chl2c           7  0.22770740000000000        4.3064391842467263E-002  0.22770740000000000        0.0000000000000000        6.6574078834095124E-022
 chl           7   3.1286655363523336E-036   1.3739850072295996E-035  0.22770740000000000     
 chl2c           8  0.49578364999999996        4.7969800906495587E-002  0.49578364999999996        0.0000000000000000        7.0739699347027360E-022
 chl           8   6.8119930192956727E-036   1.3739850072295996E-035  0.49578364999999996     
 chl2c           9  0.28700202499999999        2.4803669054600401E-002  0.28700202499999999        0.0000000000000000        5.4184050196688223E-016
 chl           9   3.9433647939453469E-036   1.3739850072295996E-035  0.28700202499999999     
 chl2c          10  0.39094662499999999        2.5387016219684602E-002  0.39094662499999999        0.0000000000000000        5.4184836569580462E-016
 chl          10   5.3715480137701254E-036   1.3739850072295996E-035  0.39094662499999999     
 chl2c          11  0.49737575000000001        2.1820572217820047E-002  0.49737575000000001        0.0000000000000000        4.3926798014220335E-006
 chl          11   6.8338682345957756E-036   1.3739850072295996E-035  0.49737575000000001     
 chl2c          12  0.30768942500000002        4.5290941298723353E-002  0.30768942500000002        0.0000000000000000        2.6168254332021738E-013
 chl          12   4.2276065683309636E-036   1.3739850072295996E-035  0.30768942500000002     
 chl2c          13  0.75666275000000005        3.7935816987997487E-002  0.75666275000000005        0.0000000000000000        4.8332418183589857E-006
 chl          13   1.9783985232311825E-029   2.6146371328986161E-029  0.75666275000000005     
 chl2c          14  0.39804095000000000        4.6856526101924839E-002  0.39804095000000000        0.0000000000000000        5.5943756971712620E-011
 chl          14   5.4690229756342667E-036   1.3739850072295996E-035  0.39804095000000000     
 chl2c          15  0.25607262500000000        2.0954299823745293E-002  0.25607262500000000        0.0000000000000000        5.4323432145046372E-016
 chl          15   3.5183994751192756E-036   1.3739850072295996E-035  0.25607262500000000     
 chl2c          16  0.71433214999999994        3.7823443882273475E-002  0.71433214999999994        0.0000000000000000        2.1923127803109538E-006
 chl          16   1.8677193646133340E-029   2.6146371328986581E-029  0.71433214999999994     
 chl2c          17  0.62580860000000005        3.7542254757581245E-002  0.62580860000000005        0.0000000000000000        7.6116543914749116E-006
 chl          17   1.6362624036473232E-029   2.6146371328986581E-029  0.62580860000000005     
 chl2c          18  0.47925950000000000        2.5694475239060960E-002  0.47925950000000000        0.0000000000000000        3.3135068937527070E-006
 chl          18   6.5849536757235429E-036   1.3739850072295996E-035  0.47925950000000000     
 chl2c          19  0.63367130000000005        3.7570220750293731E-002  0.63367130000000005        0.0000000000000000        9.2840687192046709E-016
 chl          19   1.6568205110321655E-029   2.6146371328986581E-029  0.63367130000000005     
 chl2c          20  0.50678202500000002        3.7020645196759419E-002  0.50678202500000002        0.0000000000000000        6.0299339506085180E-006
 chl          20   1.3250511008505547E-029   2.6146371328986161E-029  0.50678202500000002     
 chl2c          21  0.71973185000000006        3.7838475073783531E-002  0.71973185000000006        0.0000000000000000        9.3329170702405035E-016
 chl          21   1.8818376207398169E-029   2.6146371328986161E-029  0.71973185000000006     
 chl2c          22  0.64616892500000001        3.7613353106285476E-002  0.64616892500000001        0.0000000000000000        9.3808794980092503E-016
 chl          22   1.6894972654302081E-029   2.6146371328986581E-029  0.64616892500000001     
 chl2c          23  0.41564179999999995        3.2286562315070731E-002  0.41564179999999995        0.0000000000000000        9.7394436084699703E-022
 chl          23   5.7108560157792370E-036   1.3739850072295996E-035  0.41564179999999995     
 chl2c          24  0.57597492500000003        3.7348402796863071E-002  0.57597492500000003        0.0000000000000000        6.9166717368322820E-006
 chl          24   1.5059654265234954E-029   2.6146371328986161E-029  0.57597492500000003     
 chl2c          25  0.31406487500000002        4.5426679235459781E-002  0.31406487500000002        0.0000000000000000        7.4178774772674939E-022
 chl          25   4.3152042954743831E-036   1.3739850072295996E-035  0.31406487500000002     
 chl2c          26  0.49427735000000000        4.7955660680174553E-002  0.49427735000000000        0.0000000000000000        5.3846448576546934E-012
 chl          26   6.7912966831317738E-036   1.3739850072295996E-035  0.49427735000000000     
 chl2c          27  0.30964730000000001        4.5333133499525620E-002  0.30964730000000001        0.0000000000000000        8.4462375283010909E-011
 chl          27   4.2545074772912602E-036   1.3739850072295996E-035  0.30964730000000001     
 chl2c          28  0.28776342500000002        3.1209236063453518E-002  0.28776342500000002        0.0000000000000000        7.9702517753502193E-011
 chl          28   3.9538263157903936E-036   1.3739850072295996E-035  0.28776342500000002     
 chl2c          29  0.68676297499999994        3.7743217595736761E-002  0.68676297499999994        0.0000000000000000        9.3416836997476715E-016
 chl          29   1.7956359759349237E-029   2.6146371328986161E-029  0.68676297499999994     
 chl2c          30  0.38930277499999999        2.5380056985171612E-002  0.38930277499999999        0.0000000000000000        4.4053093101965448E-006
 chl          30   5.3489617612287819E-036   1.3739850072295996E-035  0.38930277499999999     
 chl2c          31  0.63559385000000002        3.7576959810037038E-002  0.63559385000000002        0.0000000000000000        9.3635830406573685E-016
 chl          31   1.6618472816519932E-029   2.6146371328986161E-029  0.63559385000000002     
 chl2c          32  0.24722667500000001        2.0893126428578448E-002  0.24722667500000001        0.0000000000000000        5.4365783293586137E-016
 chl          32   3.3968574483722489E-036   1.3739850072295996E-035  0.24722667500000001     
 chl2c          33  0.60343137499999999        3.7458922634011876E-002  0.60343137499999999        0.0000000000000000        9.2987407352970026E-016
 chl          33   1.5777540802310696E-029   2.6146371328986161E-029  0.60343137499999999     
 chl2c          34  0.38241020000000003        2.5350269098008315E-002  0.38241020000000003        0.0000000000000000        5.3925575712340479E-016
 chl          34   5.2542588141167263E-036   1.3739850072295996E-035  0.38241020000000003     
 chl2c          35  0.49574644999999995        2.5740370148566064E-002  0.49574644999999995        0.0000000000000000        4.3003677816655606E-006
 chl          35   6.8114818968729822E-036   1.3739850072295996E-035  0.49574644999999995     
 chl2c          36  0.69587337500000002        3.7770393924465726E-002  0.69587337500000002        0.0000000000000000        6.9735710705905826E-006
 chl          36   1.8194563660705127E-029   2.6146371328986581E-029  0.69587337500000002     
 chl2c          37  0.33194060000000003        2.1353674699533250E-002  0.33194060000000003        0.0000000000000000        2.4896874128923498E-006
 chl          37   4.5608140769079769E-036   1.3739850072295996E-035  0.33194060000000003     
 chl2c          38  0.38455722500000000        2.1543295686358745E-002  0.38455722500000000        0.0000000000000000        4.2037272982833781E-006
 chl          38   5.2837586157181978E-036   1.3739850072295996E-035  0.38455722500000000     
 chl2c          39  0.47091117500000002        2.5670077108751441E-002  0.47091117500000002        0.0000000000000000        3.7615652046299775E-006
 chl          39   6.4702489418687423E-036   1.3739850072295996E-035  0.47091117500000002     
 chl2c          40  0.66875547499999999        3.7687445774703773E-002  0.66875547499999999        0.0000000000000000        2.2143857921295482E-006
 chl          40   1.7485528977642803E-029   2.6146371328986581E-029  0.66875547499999999     
 chl2c          41  0.44304987499999998        2.5582381488167241E-002  0.44304987499999998        0.0000000000000000        5.3742518611172572E-016
 chl          41   6.0874388570494819E-036   1.3739850072295996E-035  0.44304987499999998     
 chl2c          42  0.76234377499999995        3.7949995630725070E-002  0.76234377499999995        0.0000000000000000        1.2232654675964380E-006
 chl          42   1.9932523421491077E-029   2.6146371328986161E-029  0.76234377499999995     
 chl2c          43  0.29539925000000000        2.1185090152268007E-002  0.29539925000000000        0.0000000000000000        5.4365991415810601E-016
 chl          43   4.0587414064686830E-036   1.3739850072295996E-035  0.29539925000000000     
 chl2c          44  0.62417262500000004        3.7536352708156646E-002  0.62417262500000004        0.0000000000000000        6.3640137279424680E-006
 chl          44   1.6319849226638033E-029   2.6146371328986161E-029  0.62417262500000004     
 chl2c          45  0.37662252499999999        4.6544927192009838E-002  0.37662252499999999        0.0000000000000000        8.9672231094208930E-022
 chl          45   5.1747370273495501E-036   1.3739850072295996E-035  0.37662252499999999     
 chl2c          46  0.51876034999999998        3.7083195475449568E-002  0.51876034999999998        0.0000000000000000        9.3633137910676917E-016
 chl          46   1.3563700741854825E-029   2.6146371328986161E-029  0.51876034999999998     
 chl2c          47  0.61962282499999999        3.7519784612651236E-002  0.61962282499999999        0.0000000000000000        7.5913998366181389E-006
 chl          47   1.6200888466365410E-029   2.6146371328986161E-029  0.61962282499999999     
 chl2c          48  0.71424949999999998        3.7823212136301673E-002  0.71424949999999998        0.0000000000000000        3.3349989818312085E-006
 chl          48   1.8675032648542700E-029   2.6146371328986161E-029  0.71424949999999998     
 chl2c          49  0.53276120000000005        3.7152990741888416E-002  0.53276120000000005        0.0000000000000000        7.5617326677850386E-006
 chl          49   1.3929772164876264E-029   2.6146371328986161E-029  0.53276120000000005     
 chl2c          50  0.38132569999999999        2.1533072915600981E-002  0.38132569999999999        0.0000000000000000        5.4081513992951357E-016
 chl          50   5.2393579467133210E-036   1.3739850072295996E-035  0.38132569999999999     
 chl2c          51  0.22275920000000002        2.0700971146093840E-002  0.22275920000000002        0.0000000000000000        4.2604301193665184E-006
 chl          51   3.0606780102245983E-036   1.3739850072295996E-035  0.22275920000000002     
 chl2c          52  0.63698869999999996        3.7581825176985564E-002  0.63698869999999996        0.0000000000000000        3.9024285892670004E-006
 chl          52   1.6654943082568434E-029   2.6146371328986581E-029  0.63698869999999996     
 chl2c          53  0.75269794999999995        3.7925801262726190E-002  0.75269794999999995        0.0000000000000000        4.5443749929653927E-007
 chl          53   1.9680320099266974E-029   2.6146371328986581E-029  0.75269794999999995     
 chl2c          54  0.51861124999999997        3.7082433371327092E-002  0.51861124999999997        0.0000000000000000        7.5216460318505794E-006
 chl          54   1.3559802317889674E-029   2.6146371328986161E-029  0.51861124999999997     
 chl2c          55  0.57808280000000001        3.7357235588660491E-002  0.57808280000000001        0.0000000000000000        9.3784989210475846E-016
 chl          55   1.5114767547700042E-029   2.6146371328986161E-029  0.57808280000000001     
 chl2c          56  0.61626080000000005        3.7507394187257688E-002  0.61626080000000005        0.0000000000000000        6.6763651079147607E-006
 chl          56   1.6112983712298336E-029   2.6146371328986581E-029  0.61626080000000005     
 chl2c          57  0.68163462500000005        3.7727617852646313E-002  0.68163462500000005        0.0000000000000000        9.3832720629248343E-016
 chl          57   1.7822272015944234E-029   2.6146371328986161E-029  0.68163462500000005     
 chl2c          58  0.69416802499999997        3.7765358178394853E-002  0.69416802499999997        0.0000000000000000        9.3738618585329342E-016
 chl          58   1.8149974946359241E-029   2.6146371328986581E-029  0.69416802499999997     
 chl2c          59  0.53705127500000005        3.7173699120809672E-002  0.53705127500000005        0.0000000000000000        9.3909778721927124E-016
 chl          59   1.4041942058855463E-029   2.6146371328986161E-029  0.53705127500000005     
 chl2c          60  0.64452155000000000        3.7607757740906807E-002  0.64452155000000000        0.0000000000000000        9.2749715373048684E-016
 chl          60   1.6851899775833720E-029   2.6146371328986161E-029  0.64452155000000000     
 chl2c          61  0.70794139999999994        3.7805373434125003E-002  0.70794139999999994        0.0000000000000000        7.3990328461374384E-006
 chl          61   1.8510098723562321E-029   2.6146371328986161E-029  0.70794139999999994     
 chl2c          62  0.76481592499999995        3.7956103087269030E-002  0.76481592499999995        0.0000000000000000        3.1147190332059500E-006
 chl          62   1.9997161173372028E-029   2.6146371328986161E-029  0.76481592499999995     
 chl2c          63  0.72597904999999996        3.7855601011927406E-002  0.72597904999999996        0.0000000000000000        9.2795546929872989E-016
 chl          63   1.8981717818364915E-029   2.6146371328986581E-029  0.72597904999999996     
 chl2c          64  0.48435739999999999        2.5708982294816416E-002  0.48435739999999999        0.0000000000000000        4.3281261617348176E-006
 chl          64   6.6549980574071001E-036   1.3739850072295996E-035  0.48435739999999999     
 chl2c          65  0.76379975000000000        3.7953597170552002E-002  0.76379975000000000        0.0000000000000000        9.3121321109787686E-016
 chl          65   1.9970591884487119E-029   2.6146371328986581E-029  0.76379975000000000     
 chl2c          66  0.35213202499999996        3.1840477731474713E-002  0.35213202499999996        0.0000000000000000        5.8677546101973890E-012
 chl          66   4.8382412291539846E-036   1.3739850072295996E-035  0.35213202499999996     
 chl2c          67  0.75736760000000003        3.7937587124568600E-002  0.75736760000000003        0.0000000000000000        7.5590221311192968E-006
 chl          67   1.9802414502143059E-029   2.6146371328986161E-029  0.75736760000000003     
 chl2c          68  0.72590779999999999        3.7855407263856986E-002  0.72590779999999999        0.0000000000000000        9.3869583542026605E-016
 chl          68   1.8979854889407726E-029   2.6146371328986581E-029  0.72590779999999999     
 chl2c          69  0.45524217500000003        2.1732330561541505E-002  0.45524217500000003        0.0000000000000000        5.3964157098817267E-016
 chl          69   6.2549592310859371E-036   1.3739850072295996E-035  0.45524217500000003     
 chl2c          70  0.48694062500000002        3.2658010878182209E-002  0.48694062500000002        0.0000000000000000        9.8453463183362505E-011
 chl          70   6.6904911816101070E-036   1.3739850072295996E-035  0.48694062500000002     
 chl2c          71  0.23986107500000001        4.3481058864416305E-002  0.23986107500000001        0.0000000000000000        8.2463992919089007E-022
 chl          71   3.2956552086797454E-036   1.3739850072295996E-035  0.23986107500000001     
 chl2c          72  0.62790522500000001        3.7549776402781669E-002  0.62790522500000001        0.0000000000000000        4.8610201676844675E-006
 chl          72   1.6417443172260869E-029   2.6146371328986581E-029  0.62790522500000001     
 chl2c          73  0.35362212500000001        3.1852614277819484E-002  0.35362212500000001        0.0000000000000000        6.5149206502816605E-012
 chl          73   4.8587149797467137E-036   1.3739850072295996E-035  0.35362212500000001     
 chl2c          74  0.64719590000000005        3.7616827685877569E-002  0.64719590000000005        0.0000000000000000        9.3433072553590063E-016
 chl          74   1.6921824323997395E-029   2.6146371328986161E-029  0.64719590000000005     
 chl2c          75  0.71554212500000003        3.7826830779512356E-002  0.71554212500000003        0.0000000000000000        7.1175699696619605E-006
 chl          75   1.8708830101782134E-029   2.6146371328986581E-029  0.71554212500000003     
 chl2c          76  0.55513977500000000        3.7257729557919804E-002  0.55513977500000000        0.0000000000000000        9.3441754948196446E-016
 chl          76   1.4514890696640063E-029   2.6146371328986581E-029  0.55513977500000000     
 chl2c          77  0.52973029999999999        3.7138172437479272E-002  0.52973029999999999        0.0000000000000000        9.2657655549798559E-016
 chl          77   1.3850525128015238E-029   2.6146371328986161E-029  0.52973029999999999     
 chl2c          78  0.45117492500000000        4.7515248899399322E-002  0.45117492500000000        0.0000000000000000        1.3245799572781538E-020
 chl          78   6.1990758258793905E-036   1.3739850072295996E-035  0.45117492500000000     
 prod   3.3458834032333018E-012   0.0000000000000000        10.000000000000000     
 dcdom   5.4438434025694414E-015  -3.3958910892264041E-018
 dcdomgraz   7.3111851395684253E-020
 dcdommort   8.0604861563055868E-012
 dcdomgraz   7.4213923771751588E-020
 dcdommort   8.1590799129978439E-012
 dcdomgraz   7.4756855437575882E-020
 dcdommort   8.2030994173585634E-012
 dcdomgraz   7.5359507224294155E-020
 dcdommort   8.2783823848819038E-012
 dcdomgraz   7.5964756010044505E-020
 dcdommort   8.3626022059416597E-012
 dcdomgraz   7.4582692611380600E-020
 dcdommort   8.2718541103315150E-012
 dcdomgraz   7.3188032533031494E-020
 dcdommort   8.1793256961494819E-012
 dcdomgraz   6.0778063153774932E-020
 dcdommort   7.3462367457565584E-012
 dcdomgraz   4.9455053376262747E-020
 dcdommort   6.5094511772125072E-012
 dcdomgraz   3.7890295083841410E-020
 dcdommort   5.2037720862706672E-012
 dcdomgraz   2.6499039670958470E-020
 dcdommort   3.7399615057127906E-012
 dcdomgraz   1.5686567540019369E-020
 dcdommort   2.2766421770724367E-012
 dcdomgraz   1.1031602312079691E-020
 dcdommort   1.6015983786778864E-012
 dcdomgraz   8.2899804486704576E-021
 dcdommort   1.1925201196454682E-012
 dcdomgraz   5.4995054903371997E-021
 dcdommort   7.8385115119521267E-013
 dcdomgraz   1.2284301826319503E-021
 dcdommort   1.7248424924649934E-013
 dcdomgraz   7.0297703201551828E-022
 dcdommort   1.3006523487266152E-013
 dcdomgraz   3.2919823899084513E-022
 dcdommort   8.9013375587251391E-014
 dcdomgraz   9.5547650742940800E-023
 dcdommort   4.7967453143315750E-014
 dcdomgraz   1.9733897271817157E-024
 dcdommort   6.9103579831944237E-015
 dcdomgraz   1.1356313453834463E-030
 dcdommort   1.1579892859292637E-017
 dcdomgraz   0.0000000000000000     
 dcdommort   1.3309414246287420E-020
 dcdomgraz   0.0000000000000000     
 dcdommort   7.5367254211931575E-024
 dcdomgraz   0.0000000000000000     
 dcdommort   1.4306812609856465E-034
 dcdomgraz   0.0000000000000000     
 dcdommort   1.1330678629869321E-033
 dcdomgraz   0.0000000000000000     
 dcdommort   5.9016145140385105E-029
 dcdomgraz   0.0000000000000000     
 dcdommort   2.3945513352203063E-023
 dcdomgraz   0.0000000000000000     
 dcdommort   3.7433180792777365E-018
 dcdomgraz   5.7397800081894277E-026
 dcdommort   1.7781254976025659E-017
 dcdomgraz   9.6459260136320978E-028
 dcdommort   4.8845842202952929E-018
 dcdomgraz   9.6304318459732069E-028
 dcdommort   4.8838062522640583E-018
 dcdomgraz   0.0000000000000000     
 dcdommort   2.1668490744936844E-022
 dcdomgraz   0.0000000000000000     
 dcdommort   6.4513150368972670E-027
 dcdomgraz   0.0000000000000000     
 dcdommort   2.7133992201236034E-037
 dcdomgraz   0.0000000000000000     
 dcdommort   6.8377658993199528E-044
 fe   1.3005208843698188E-003
(PID.TID 0000.0001) // =======================================================
(PID.TID 0000.0001) // Begin MONITOR dynamic field statistics
(PID.TID 0000.0001) // =======================================================
(PID.TID 0000.0001) %MON time_tsnumber                =                     4
(PID.TID 0000.0001) %MON time_secondsf                =   1.4400000000000000E+04
(PID.TID 0000.0001) %MON dynstat_eta_max              =   0.0000000000000000E+00
(PID.TID 0000.0001) %MON dynstat_eta_min              =   0.0000000000000000E+00
(PID.TID 0000.0001) %MON dynstat_eta_mean             =   0.0000000000000000E+00
(PID.TID 0000.0001) %MON dynstat_eta_sd               =   0.0000000000000000E+00
(PID.TID 0000.0001) %MON dynstat_eta_del2             =   0.0000000000000000E+00
(PID.TID 0000.0001) %MON dynstat_uvel_max             =   0.0000000000000000E+00
(PID.TID 0000.0001) %MON dynstat_uvel_min             =   0.0000000000000000E+00
(PID.TID 0000.0001) %MON dynstat_uvel_mean            =   0.0000000000000000E+00
(PID.TID 0000.0001) %MON dynstat_uvel_sd              =   0.0000000000000000E+00
(PID.TID 0000.0001) %MON dynstat_uvel_del2            =   0.0000000000000000E+00
(PID.TID 0000.0001) %MON dynstat_vvel_max             =   0.0000000000000000E+00
(PID.TID 0000.0001) %MON dynstat_vvel_min             =   0.0000000000000000E+00
(PID.TID 0000.0001) %MON dynstat_vvel_mean            =   0.0000000000000000E+00
(PID.TID 0000.0001) %MON dynstat_vvel_sd              =   0.0000000000000000E+00
(PID.TID 0000.0001) %MON dynstat_vvel_del2            =   0.0000000000000000E+00
(PID.TID 0000.0001) %MON dynstat_wvel_max             =   0.0000000000000000E+00
(PID.TID 0000.0001) %MON dynstat_wvel_min             =   0.0000000000000000E+00
(PID.TID 0000.0001) %MON dynstat_wvel_mean            =   0.0000000000000000E+00
(PID.TID 0000.0001) %MON dynstat_wvel_sd              =   0.0000000000000000E+00
(PID.TID 0000.0001) %MON dynstat_wvel_del2            =   0.0000000000000000E+00
(PID.TID 0000.0001) %MON dynstat_theta_max            =   2.6307340345579252E+01
(PID.TID 0000.0001) %MON dynstat_theta_min            =   2.6737009916297056E+00
(PID.TID 0000.0001) %MON dynstat_theta_mean           =   5.4734908053327649E+00
(PID.TID 0000.0001) %MON dynstat_theta_sd             =   5.1967318185907638E+00
(PID.TID 0000.0001) %MON dynstat_theta_del2           =   0.0000000000000000E+00
(PID.TID 0000.0001) %MON dynstat_salt_max             =   3.5000000000000000E+01
(PID.TID 0000.0001) %MON dynstat_salt_min             =   3.5000000000000000E+01
(PID.TID 0000.0001) %MON dynstat_salt_mean            =   3.5000000000000007E+01
(PID.TID 0000.0001) %MON dynstat_salt_sd              =   7.1054273576010019E-15
(PID.TID 0000.0001) %MON dynstat_salt_del2            =   0.0000000000000000E+00
(PID.TID 0000.0001) %MON dynstat_sst_max              =   2.6307340345579252E+01
(PID.TID 0000.0001) %MON dynstat_sst_min              =   2.6307340345579252E+01
(PID.TID 0000.0001) %MON dynstat_sst_mean             =   2.6307340345579252E+01
(PID.TID 0000.0001) %MON dynstat_sst_sd               =   0.0000000000000000E+00
(PID.TID 0000.0001) %MON dynstat_sst_del2             =   0.0000000000000000E+00
(PID.TID 0000.0001) %MON dynstat_sss_max              =   3.5000000000000000E+01
(PID.TID 0000.0001) %MON dynstat_sss_min              =   3.5000000000000000E+01
(PID.TID 0000.0001) %MON dynstat_sss_mean             =   3.5000000000000000E+01
(PID.TID 0000.0001) %MON dynstat_sss_sd               =   0.0000000000000000E+00
(PID.TID 0000.0001) %MON dynstat_sss_del2             =   0.0000000000000000E+00
(PID.TID 0000.0001) %MON forcing_qnet_max             =   0.0000000000000000E+00
(PID.TID 0000.0001) %MON forcing_qnet_min             =   0.0000000000000000E+00
(PID.TID 0000.0001) %MON forcing_qnet_mean            =   0.0000000000000000E+00
(PID.TID 0000.0001) %MON forcing_qnet_sd              =   0.0000000000000000E+00
(PID.TID 0000.0001) %MON forcing_qnet_del2            =   0.0000000000000000E+00
(PID.TID 0000.0001) %MON forcing_qsw_max              =   0.0000000000000000E+00
(PID.TID 0000.0001) %MON forcing_qsw_min              =   0.0000000000000000E+00
(PID.TID 0000.0001) %MON forcing_qsw_mean             =   0.0000000000000000E+00
(PID.TID 0000.0001) %MON forcing_qsw_sd               =   0.0000000000000000E+00
(PID.TID 0000.0001) %MON forcing_qsw_del2             =   0.0000000000000000E+00
(PID.TID 0000.0001) %MON forcing_empmr_max            =   0.0000000000000000E+00
(PID.TID 0000.0001) %MON forcing_empmr_min            =   0.0000000000000000E+00
(PID.TID 0000.0001) %MON forcing_empmr_mean           =   0.0000000000000000E+00
(PID.TID 0000.0001) %MON forcing_empmr_sd             =   0.0000000000000000E+00
(PID.TID 0000.0001) %MON forcing_empmr_del2           =   0.0000000000000000E+00
(PID.TID 0000.0001) %MON forcing_fu_max               =   0.0000000000000000E+00
(PID.TID 0000.0001) %MON forcing_fu_min               =   0.0000000000000000E+00
(PID.TID 0000.0001) %MON forcing_fu_mean              =   0.0000000000000000E+00
(PID.TID 0000.0001) %MON forcing_fu_sd                =   0.0000000000000000E+00
(PID.TID 0000.0001) %MON forcing_fu_del2              =   0.0000000000000000E+00
(PID.TID 0000.0001) %MON forcing_fv_max               =   0.0000000000000000E+00
(PID.TID 0000.0001) %MON forcing_fv_min               =   0.0000000000000000E+00
(PID.TID 0000.0001) %MON forcing_fv_mean              =   0.0000000000000000E+00
(PID.TID 0000.0001) %MON forcing_fv_sd                =   0.0000000000000000E+00
(PID.TID 0000.0001) %MON forcing_fv_del2              =   0.0000000000000000E+00
(PID.TID 0000.0001) %MON advcfl_uvel_max              =   0.0000000000000000E+00
(PID.TID 0000.0001) %MON advcfl_vvel_max              =   0.0000000000000000E+00
(PID.TID 0000.0001) %MON advcfl_wvel_max              =   0.0000000000000000E+00
(PID.TID 0000.0001) %MON advcfl_W_hf_max              =   0.0000000000000000E+00
(PID.TID 0000.0001) %MON pe_b_mean                    =   0.0000000000000000E+00
(PID.TID 0000.0001) %MON ke_max                       =   0.0000000000000000E+00
(PID.TID 0000.0001) %MON ke_mean                      =   0.0000000000000000E+00
(PID.TID 0000.0001) %MON ke_vol                       =   4.1199767883484609E+13
(PID.TID 0000.0001) %MON vort_r_min                   =   0.0000000000000000E+00
(PID.TID 0000.0001) %MON vort_r_max                   =   0.0000000000000000E+00
(PID.TID 0000.0001) %MON vort_a_mean                  =  -4.5067801836624727E-05
(PID.TID 0000.0001) %MON vort_a_sd                    =  -4.1359030627651384E-25
(PID.TID 0000.0001) %MON vort_p_mean                  =  -4.5067801836624727E-05
(PID.TID 0000.0001) %MON vort_p_sd                    =   0.0000000000000000E+00
(PID.TID 0000.0001) %MON surfExpan_theta_mean         =   0.0000000000000000E+00
(PID.TID 0000.0001) %MON surfExpan_salt_mean          =   0.0000000000000000E+00
(PID.TID 0000.0001) // =======================================================
(PID.TID 0000.0001) // End MONITOR dynamic field statistics
(PID.TID 0000.0001) // =======================================================
(PID.TID 0000.0001) // =======================================================
(PID.TID 0000.0001) // Begin MONITOR ptracer field statistics
(PID.TID 0000.0001) // =======================================================
(PID.TID 0000.0001) %MON trcstat_ptracer01_max        =   2.0000000007673002E+03
(PID.TID 0000.0001) %MON trcstat_ptracer01_min        =   1.9999994183349954E+03
(PID.TID 0000.0001) %MON trcstat_ptracer01_mean       =   1.9999999974436842E+03
(PID.TID 0000.0001) %MON trcstat_ptracer01_sd         =   3.4369248575472857E-05
(PID.TID 0000.0001) %MON trcstat_ptracer01_del2       =   0.0000000000000000E+00
(PID.TID 0000.0001) %MON trcstat_ptracer02_max        =   1.8164653862903623E-02
(PID.TID 0000.0001) %MON trcstat_ptracer02_min        =   1.3251614798422168E-07
(PID.TID 0000.0001) %MON trcstat_ptracer02_mean       =   4.5878659175026357E-04
(PID.TID 0000.0001) %MON trcstat_ptracer02_sd         =   2.4722789820314740E-03
(PID.TID 0000.0001) %MON trcstat_ptracer02_del2       =   0.0000000000000000E+00
(PID.TID 0000.0001) %MON trcstat_ptracer03_max        =   1.8872935239117965E-02
(PID.TID 0000.0001) %MON trcstat_ptracer03_min        =   3.8702059435013112E-06
(PID.TID 0000.0001) %MON trcstat_ptracer03_mean       =   7.4428652693684847E-04
(PID.TID 0000.0001) %MON trcstat_ptracer03_sd         =   2.3806520363254522E-03
(PID.TID 0000.0001) %MON trcstat_ptracer03_del2       =   0.0000000000000000E+00
(PID.TID 0000.0001) %MON trcstat_ptracer04_max        =   3.3903492978667295E+01
(PID.TID 0000.0001) %MON trcstat_ptracer04_min        =   4.6769842052791499E-02
(PID.TID 0000.0001) %MON trcstat_ptracer04_mean       =   2.3502400384602453E+01
(PID.TID 0000.0001) %MON trcstat_ptracer04_sd         =   7.8161703311226693E+00
(PID.TID 0000.0001) %MON trcstat_ptracer04_del2       =   0.0000000000000000E+00
(PID.TID 0000.0001) %MON trcstat_ptracer05_max        =   2.2436991577658918E+00
(PID.TID 0000.0001) %MON trcstat_ptracer05_min        =   2.1026205045108540E-01
(PID.TID 0000.0001) %MON trcstat_ptracer05_mean       =   1.5821340819587615E+00
(PID.TID 0000.0001) %MON trcstat_ptracer05_sd         =   4.6734902525363931E-01
(PID.TID 0000.0001) %MON trcstat_ptracer05_del2       =   0.0000000000000000E+00
(PID.TID 0000.0001) %MON trcstat_ptracer06_max        =   3.9387400649807098E+01
(PID.TID 0000.0001) %MON trcstat_ptracer06_min        =   1.2248195260625256E+00
(PID.TID 0000.0001) %MON trcstat_ptracer06_mean       =   2.9621891778661844E+01
(PID.TID 0000.0001) %MON trcstat_ptracer06_sd         =   1.1270579945782083E+01
(PID.TID 0000.0001) %MON trcstat_ptracer06_del2       =   0.0000000000000000E+00
(PID.TID 0000.0001) %MON trcstat_ptracer07_max        =   1.3005208843698188E-03
(PID.TID 0000.0001) %MON trcstat_ptracer07_min        =   1.2999415637156536E-03
(PID.TID 0000.0001) %MON trcstat_ptracer07_mean       =   1.2999435481783877E-03
(PID.TID 0000.0001) %MON trcstat_ptracer07_sd         =   3.0959926627033963E-08
(PID.TID 0000.0001) %MON trcstat_ptracer07_del2       =   0.0000000000000000E+00
(PID.TID 0000.0001) %MON trcstat_ptracer08_max        =   7.9741384715914763E-03
(PID.TID 0000.0001) %MON trcstat_ptracer08_min        =  -2.1590677653940737E-06
(PID.TID 0000.0001) %MON trcstat_ptracer08_mean       =   7.0526197491938055E-05
(PID.TID 0000.0001) %MON trcstat_ptracer08_sd         =   5.1022415804782297E-04
(PID.TID 0000.0001) %MON trcstat_ptracer08_del2       =   0.0000000000000000E+00
(PID.TID 0000.0001) %MON trcstat_ptracer09_max        =   8.2743597377231651E-02
(PID.TID 0000.0001) %MON trcstat_ptracer09_min        =   6.1342252845584397E-08
(PID.TID 0000.0001) %MON trcstat_ptracer09_mean       =   3.4436473167279540E-03
(PID.TID 0000.0001) %MON trcstat_ptracer09_sd         =   1.4814119838957140E-02
(PID.TID 0000.0001) %MON trcstat_ptracer09_del2       =   0.0000000000000000E+00
(PID.TID 0000.0001) %MON trcstat_ptracer10_max        =   5.1714748360769782E-03
(PID.TID 0000.0001) %MON trcstat_ptracer10_min        =   3.8338908028490248E-09
(PID.TID 0000.0001) %MON trcstat_ptracer10_mean       =   2.1522795729549712E-04
(PID.TID 0000.0001) %MON trcstat_ptracer10_sd         =   9.2588248993482128E-04
(PID.TID 0000.0001) %MON trcstat_ptracer10_del2       =   0.0000000000000000E+00
(PID.TID 0000.0001) %MON trcstat_ptracer11_max        =   5.1714748246753374E-06
(PID.TID 0000.0001) %MON trcstat_ptracer11_min        =   3.8338903744499384E-12
(PID.TID 0000.0001) %MON trcstat_ptracer11_mean       =   2.1522795760324189E-07
(PID.TID 0000.0001) %MON trcstat_ptracer11_sd         =   9.2588248956964597E-07
(PID.TID 0000.0001) %MON trcstat_ptracer11_del2       =   0.0000000000000000E+00
(PID.TID 0000.0001) %MON trcstat_ptracer12_max        =   4.1094386937309341E-04
(PID.TID 0000.0001) %MON trcstat_ptracer12_min        =   4.4405372022028341E-26
(PID.TID 0000.0001) %MON trcstat_ptracer12_mean       =   1.2267592625257325E-05
(PID.TID 0000.0001) %MON trcstat_ptracer12_sd         =   6.4076237060798537E-05
(PID.TID 0000.0001) %MON trcstat_ptracer12_del2       =   0.0000000000000000E+00
(PID.TID 0000.0001) %MON trcstat_ptracer13_max        =   4.3444029282960978E-03
(PID.TID 0000.0001) %MON trcstat_ptracer13_min        =   1.8829962345039315E-05
(PID.TID 0000.0001) %MON trcstat_ptracer13_mean       =   1.2603405838219808E-03
(PID.TID 0000.0001) %MON trcstat_ptracer13_sd         =   1.5417300354750336E-03
(PID.TID 0000.0001) %MON trcstat_ptracer13_del2       =   0.0000000000000000E+00
(PID.TID 0000.0001) %MON trcstat_ptracer14_max        =   2.7152518301850611E-04
(PID.TID 0000.0001) %MON trcstat_ptracer14_min        =   1.1768726465649572E-06
(PID.TID 0000.0001) %MON trcstat_ptracer14_mean       =   7.8771286488873798E-05
(PID.TID 0000.0001) %MON trcstat_ptracer14_sd         =   9.6358127217189597E-05
(PID.TID 0000.0001) %MON trcstat_ptracer14_del2       =   0.0000000000000000E+00
(PID.TID 0000.0001) %MON trcstat_ptracer15_max        =   1.6239075643478887E-02
(PID.TID 0000.0001) %MON trcstat_ptracer15_min        =   1.1401897530467083E-03
(PID.TID 0000.0001) %MON trcstat_ptracer15_mean       =   5.4875214416669803E-03
(PID.TID 0000.0001) %MON trcstat_ptracer15_sd         =   5.1667184857644233E-03
(PID.TID 0000.0001) %MON trcstat_ptracer15_del2       =   0.0000000000000000E+00
(PID.TID 0000.0001) %MON trcstat_ptracer16_max        =   2.7152519897929814E-07
(PID.TID 0000.0001) %MON trcstat_ptracer16_min        =   1.1768725182749946E-09
(PID.TID 0000.0001) %MON trcstat_ptracer16_mean       =   7.8771287013740535E-08
(PID.TID 0000.0001) %MON trcstat_ptracer16_sd         =   9.6358129271263082E-08
(PID.TID 0000.0001) %MON trcstat_ptracer16_del2       =   0.0000000000000000E+00
(PID.TID 0000.0001) %MON trcstat_ptracer17_max        =   0.0000000000000000E+00
(PID.TID 0000.0001) %MON trcstat_ptracer17_min        =   0.0000000000000000E+00
(PID.TID 0000.0001) %MON trcstat_ptracer17_mean       =   0.0000000000000000E+00
(PID.TID 0000.0001) %MON trcstat_ptracer17_sd         =   0.0000000000000000E+00
(PID.TID 0000.0001) %MON trcstat_ptracer17_del2       =   0.0000000000000000E+00
(PID.TID 0000.0001) %MON trcstat_ptracer18_max        =   5.1068727880985787E-03
(PID.TID 0000.0001) %MON trcstat_ptracer18_min        =   7.8266609063161035E-11
(PID.TID 0000.0001) %MON trcstat_ptracer18_mean       =   2.1432808811424849E-04
(PID.TID 0000.0001) %MON trcstat_ptracer18_sd         =   9.2241216857093743E-04
(PID.TID 0000.0001) %MON trcstat_ptracer18_del2       =   0.0000000000000000E+00
(PID.TID 0000.0001) %MON trcstat_ptracer19_max        =   8.6683865064327730E-04
(PID.TID 0000.0001) %MON trcstat_ptracer19_min        =   1.6992725818009073E-27
(PID.TID 0000.0001) %MON trcstat_ptracer19_mean       =   2.5849548567547198E-05
(PID.TID 0000.0001) %MON trcstat_ptracer19_sd         =   1.3545288047749640E-04
(PID.TID 0000.0001) %MON trcstat_ptracer19_del2       =   0.0000000000000000E+00
(PID.TID 0000.0001) %MON trcstat_ptracer20_max        =   8.6691171320697822E-04
(PID.TID 0000.0001) %MON trcstat_ptracer20_min        =   1.3739850072295996E-35
(PID.TID 0000.0001) %MON trcstat_ptracer20_mean       =   2.5922739044348736E-05
(PID.TID 0000.0001) %MON trcstat_ptracer20_sd         =   1.3596227634893492E-04
(PID.TID 0000.0001) %MON trcstat_ptracer20_del2       =   0.0000000000000000E+00
(PID.TID 0000.0001) %MON trcstat_ptracer21_max        =   8.6683865064327730E-04
(PID.TID 0000.0001) %MON trcstat_ptracer21_min        =   1.6992725818009073E-27
(PID.TID 0000.0001) %MON trcstat_ptracer21_mean       =   2.5849548567548390E-05
(PID.TID 0000.0001) %MON trcstat_ptracer21_sd         =   1.3545288047750359E-04
(PID.TID 0000.0001) %MON trcstat_ptracer21_del2       =   0.0000000000000000E+00
(PID.TID 0000.0001) %MON trcstat_ptracer22_max        =   8.6683866833149506E-04
(PID.TID 0000.0001) %MON trcstat_ptracer22_min        =   1.6992725818009073E-27
(PID.TID 0000.0001) %MON trcstat_ptracer22_mean       =   2.5963871471512282E-05
(PID.TID 0000.0001) %MON trcstat_ptracer22_sd         =   1.3614052275065855E-04
(PID.TID 0000.0001) %MON trcstat_ptracer22_del2       =   0.0000000000000000E+00
(PID.TID 0000.0001) %MON trcstat_ptracer23_max        =   8.6691171405138057E-04
(PID.TID 0000.0001) %MON trcstat_ptracer23_min        =   1.3739850072295996E-35
(PID.TID 0000.0001) %MON trcstat_ptracer23_mean       =   2.5993924715038415E-05
(PID.TID 0000.0001) %MON trcstat_ptracer23_sd         =   1.3639578112648534E-04
(PID.TID 0000.0001) %MON trcstat_ptracer23_del2       =   0.0000000000000000E+00
(PID.TID 0000.0001) %MON trcstat_ptracer24_max        =   8.6691171288648600E-04
(PID.TID 0000.0001) %MON trcstat_ptracer24_min        =   1.3739850072295996E-35
(PID.TID 0000.0001) %MON trcstat_ptracer24_mean       =   2.5849548560043103E-05
(PID.TID 0000.0001) %MON trcstat_ptracer24_sd         =   1.3552172203844590E-04
(PID.TID 0000.0001) %MON trcstat_ptracer24_del2       =   0.0000000000000000E+00
(PID.TID 0000.0001) %MON trcstat_ptracer25_max        =   8.6691171295942191E-04
(PID.TID 0000.0001) %MON trcstat_ptracer25_min        =   1.3739850072295996E-35
(PID.TID 0000.0001) %MON trcstat_ptracer25_mean       =   2.5888187578148886E-05
(PID.TID 0000.0001) %MON trcstat_ptracer25_sd         =   1.3575336447483357E-04
(PID.TID 0000.0001) %MON trcstat_ptracer25_del2       =   0.0000000000000000E+00
(PID.TID 0000.0001) %MON trcstat_ptracer26_max        =   8.6691171288648600E-04
(PID.TID 0000.0001) %MON trcstat_ptracer26_min        =   1.3739850072295996E-35
(PID.TID 0000.0001) %MON trcstat_ptracer26_mean       =   2.5849548560039945E-05
(PID.TID 0000.0001) %MON trcstat_ptracer26_sd         =   1.3552172203842692E-04
(PID.TID 0000.0001) %MON trcstat_ptracer26_del2       =   0.0000000000000000E+00
(PID.TID 0000.0001) %MON trcstat_ptracer27_max        =   8.6691171312308949E-04
(PID.TID 0000.0001) %MON trcstat_ptracer27_min        =   1.3739850072295996E-35
(PID.TID 0000.0001) %MON trcstat_ptracer27_mean       =   2.5852484805986818E-05
(PID.TID 0000.0001) %MON trcstat_ptracer27_sd         =   1.3553954085384490E-04
(PID.TID 0000.0001) %MON trcstat_ptracer27_del2       =   0.0000000000000000E+00
(PID.TID 0000.0001) %MON trcstat_ptracer28_max        =   8.6691171385874484E-04
(PID.TID 0000.0001) %MON trcstat_ptracer28_min        =   1.3739850072295996E-35
(PID.TID 0000.0001) %MON trcstat_ptracer28_mean       =   2.6007129326964536E-05
(PID.TID 0000.0001) %MON trcstat_ptracer28_sd         =   1.3647695348127246E-04
(PID.TID 0000.0001) %MON trcstat_ptracer28_del2       =   0.0000000000000000E+00
(PID.TID 0000.0001) %MON trcstat_ptracer29_max        =   8.6691171288648600E-04
(PID.TID 0000.0001) %MON trcstat_ptracer29_min        =   1.3739850072295996E-35
(PID.TID 0000.0001) %MON trcstat_ptracer29_mean       =   2.5849548560047792E-05
(PID.TID 0000.0001) %MON trcstat_ptracer29_sd         =   1.3552172203847417E-04
(PID.TID 0000.0001) %MON trcstat_ptracer29_del2       =   0.0000000000000000E+00
(PID.TID 0000.0001) %MON trcstat_ptracer30_max        =   8.6691171288648600E-04
(PID.TID 0000.0001) %MON trcstat_ptracer30_min        =   1.3739850072295996E-35
(PID.TID 0000.0001) %MON trcstat_ptracer30_mean       =   2.5849548560039884E-05
(PID.TID 0000.0001) %MON trcstat_ptracer30_sd         =   1.3552172203842652E-04
(PID.TID 0000.0001) %MON trcstat_ptracer30_del2       =   0.0000000000000000E+00
(PID.TID 0000.0001) %MON trcstat_ptracer31_max        =   8.6683865037496058E-04
(PID.TID 0000.0001) %MON trcstat_ptracer31_min        =   1.6992725818008517E-27
(PID.TID 0000.0001) %MON trcstat_ptracer31_mean       =   2.5849548560048188E-05
(PID.TID 0000.0001) %MON trcstat_ptracer31_sd         =   1.3545288043713126E-04
(PID.TID 0000.0001) %MON trcstat_ptracer31_del2       =   0.0000000000000000E+00
(PID.TID 0000.0001) %MON trcstat_ptracer32_max        =   8.6691171288648600E-04
(PID.TID 0000.0001) %MON trcstat_ptracer32_min        =   1.3739850072295996E-35
(PID.TID 0000.0001) %MON trcstat_ptracer32_mean       =   2.5849548560040897E-05
(PID.TID 0000.0001) %MON trcstat_ptracer32_sd         =   1.3552172203843262E-04
(PID.TID 0000.0001) %MON trcstat_ptracer32_del2       =   0.0000000000000000E+00
(PID.TID 0000.0001) %MON trcstat_ptracer33_max        =   8.6770102546051273E-04
(PID.TID 0000.0001) %MON trcstat_ptracer33_min        =   1.3739850072295996E-35
(PID.TID 0000.0001) %MON trcstat_ptracer33_mean       =   2.5977752117783549E-05
(PID.TID 0000.0001) %MON trcstat_ptracer33_sd         =   1.3629861184282169E-04
(PID.TID 0000.0001) %MON trcstat_ptracer33_del2       =   0.0000000000000000E+00
(PID.TID 0000.0001) %MON trcstat_ptracer34_max        =   8.6683865064327730E-04
(PID.TID 0000.0001) %MON trcstat_ptracer34_min        =   1.6992725818009073E-27
(PID.TID 0000.0001) %MON trcstat_ptracer34_mean       =   2.5849548567549068E-05
(PID.TID 0000.0001) %MON trcstat_ptracer34_sd         =   1.3545288047750760E-04
(PID.TID 0000.0001) %MON trcstat_ptracer34_del2       =   0.0000000000000000E+00
(PID.TID 0000.0001) %MON trcstat_ptracer35_max        =   8.6683865064327730E-04
(PID.TID 0000.0001) %MON trcstat_ptracer35_min        =   1.6992725818009073E-27
(PID.TID 0000.0001) %MON trcstat_ptracer35_mean       =   2.5849548567549061E-05
(PID.TID 0000.0001) %MON trcstat_ptracer35_sd         =   1.3545288047750757E-04
(PID.TID 0000.0001) %MON trcstat_ptracer35_del2       =   0.0000000000000000E+00
(PID.TID 0000.0001) %MON trcstat_ptracer36_max        =   8.6691171288648600E-04
(PID.TID 0000.0001) %MON trcstat_ptracer36_min        =   1.3739850072295996E-35
(PID.TID 0000.0001) %MON trcstat_ptracer36_mean       =   2.5849548560048452E-05
(PID.TID 0000.0001) %MON trcstat_ptracer36_sd         =   1.3552172203847813E-04
(PID.TID 0000.0001) %MON trcstat_ptracer36_del2       =   0.0000000000000000E+00
(PID.TID 0000.0001) %MON trcstat_ptracer37_max        =   8.6683866400307863E-04
(PID.TID 0000.0001) %MON trcstat_ptracer37_min        =   1.6992725818009073E-27
(PID.TID 0000.0001) %MON trcstat_ptracer37_mean       =   2.5902030145284737E-05
(PID.TID 0000.0001) %MON trcstat_ptracer37_sd         =   1.3576751591007499E-04
(PID.TID 0000.0001) %MON trcstat_ptracer37_del2       =   0.0000000000000000E+00
(PID.TID 0000.0001) %MON trcstat_ptracer38_max        =   8.6683865037496058E-04
(PID.TID 0000.0001) %MON trcstat_ptracer38_min        =   1.6992725818008517E-27
(PID.TID 0000.0001) %MON trcstat_ptracer38_mean       =   2.5849548560049574E-05
(PID.TID 0000.0001) %MON trcstat_ptracer38_sd         =   1.3545288043713958E-04
(PID.TID 0000.0001) %MON trcstat_ptracer38_del2       =   0.0000000000000000E+00
(PID.TID 0000.0001) %MON trcstat_ptracer39_max        =   8.6683865774045920E-04
(PID.TID 0000.0001) %MON trcstat_ptracer39_min        =   1.6992725818008517E-27
(PID.TID 0000.0001) %MON trcstat_ptracer39_mean       =   2.5855925776006052E-05
(PID.TID 0000.0001) %MON trcstat_ptracer39_sd         =   1.3549142660755363E-04
(PID.TID 0000.0001) %MON trcstat_ptracer39_del2       =   0.0000000000000000E+00
(PID.TID 0000.0001) %MON trcstat_ptracer40_max        =   8.6683866594777380E-04
(PID.TID 0000.0001) %MON trcstat_ptracer40_min        =   1.6992725818009073E-27
(PID.TID 0000.0001) %MON trcstat_ptracer40_mean       =   2.6001598520699477E-05
(PID.TID 0000.0001) %MON trcstat_ptracer40_sd         =   1.3636991498107488E-04
(PID.TID 0000.0001) %MON trcstat_ptracer40_del2       =   0.0000000000000000E+00
(PID.TID 0000.0001) %MON trcstat_ptracer41_max        =   8.6691171288648600E-04
(PID.TID 0000.0001) %MON trcstat_ptracer41_min        =   1.3739850072295996E-35
(PID.TID 0000.0001) %MON trcstat_ptracer41_mean       =   2.5849548560042255E-05
(PID.TID 0000.0001) %MON trcstat_ptracer41_sd         =   1.3552172203844080E-04
(PID.TID 0000.0001) %MON trcstat_ptracer41_del2       =   0.0000000000000000E+00
(PID.TID 0000.0001) %MON trcstat_ptracer42_max        =   8.6683865037496058E-04
(PID.TID 0000.0001) %MON trcstat_ptracer42_min        =   1.6992725818008517E-27
(PID.TID 0000.0001) %MON trcstat_ptracer42_mean       =   2.5849548560046728E-05
(PID.TID 0000.0001) %MON trcstat_ptracer42_sd         =   1.3545288043712250E-04
(PID.TID 0000.0001) %MON trcstat_ptracer42_del2       =   0.0000000000000000E+00
(PID.TID 0000.0001) %MON trcstat_ptracer43_max        =   8.6691171288648600E-04
(PID.TID 0000.0001) %MON trcstat_ptracer43_min        =   1.3739850072295996E-35
(PID.TID 0000.0001) %MON trcstat_ptracer43_mean       =   2.5849548560040256E-05
(PID.TID 0000.0001) %MON trcstat_ptracer43_sd         =   1.3552172203842877E-04
(PID.TID 0000.0001) %MON trcstat_ptracer43_del2       =   0.0000000000000000E+00
(PID.TID 0000.0001) %MON trcstat_ptracer44_max        =   8.6691171288648600E-04
(PID.TID 0000.0001) %MON trcstat_ptracer44_min        =   1.3739850072295996E-35
(PID.TID 0000.0001) %MON trcstat_ptracer44_mean       =   2.5849548560039630E-05
(PID.TID 0000.0001) %MON trcstat_ptracer44_sd         =   1.3552172203842508E-04
(PID.TID 0000.0001) %MON trcstat_ptracer44_del2       =   0.0000000000000000E+00
(PID.TID 0000.0001) %MON trcstat_ptracer45_max        =   8.6691171288648600E-04
(PID.TID 0000.0001) %MON trcstat_ptracer45_min        =   1.3739850072295996E-35
(PID.TID 0000.0001) %MON trcstat_ptracer45_mean       =   2.5849548560040832E-05
(PID.TID 0000.0001) %MON trcstat_ptracer45_sd         =   1.3552172203843224E-04
(PID.TID 0000.0001) %MON trcstat_ptracer45_del2       =   0.0000000000000000E+00
(PID.TID 0000.0001) %MON trcstat_ptracer46_max        =   8.6691171288648600E-04
(PID.TID 0000.0001) %MON trcstat_ptracer46_min        =   1.3739850072295996E-35
(PID.TID 0000.0001) %MON trcstat_ptracer46_mean       =   2.5849548560040785E-05
(PID.TID 0000.0001) %MON trcstat_ptracer46_sd         =   1.3552172203843197E-04
(PID.TID 0000.0001) %MON trcstat_ptracer46_del2       =   0.0000000000000000E+00
(PID.TID 0000.0001) %MON trcstat_ptracer47_max        =   8.6683866654936039E-04
(PID.TID 0000.0001) %MON trcstat_ptracer47_min        =   1.6992725818008517E-27
(PID.TID 0000.0001) %MON trcstat_ptracer47_mean       =   2.6000729845748895E-05
(PID.TID 0000.0001) %MON trcstat_ptracer47_sd         =   1.3636458671080465E-04
(PID.TID 0000.0001) %MON trcstat_ptracer47_del2       =   0.0000000000000000E+00
(PID.TID 0000.0001) %MON trcstat_ptracer48_max        =   8.6691171288648600E-04
(PID.TID 0000.0001) %MON trcstat_ptracer48_min        =   1.3739850072295996E-35
(PID.TID 0000.0001) %MON trcstat_ptracer48_mean       =   2.5849548560049963E-05
(PID.TID 0000.0001) %MON trcstat_ptracer48_sd         =   1.3552172203848726E-04
(PID.TID 0000.0001) %MON trcstat_ptracer48_del2       =   0.0000000000000000E+00
(PID.TID 0000.0001) %MON trcstat_ptracer49_max        =   8.6683866544712989E-04
(PID.TID 0000.0001) %MON trcstat_ptracer49_min        =   1.6992725818008517E-27
(PID.TID 0000.0001) %MON trcstat_ptracer49_mean       =   2.6004955664930909E-05
(PID.TID 0000.0001) %MON trcstat_ptracer49_sd         =   1.3639046562111790E-04
(PID.TID 0000.0001) %MON trcstat_ptracer49_del2       =   0.0000000000000000E+00
(PID.TID 0000.0001) %MON trcstat_ptracer50_max        =   8.6691171315202739E-04
(PID.TID 0000.0001) %MON trcstat_ptracer50_min        =   1.3739850072295996E-35
(PID.TID 0000.0001) %MON trcstat_ptracer50_mean       =   2.5963229611637611E-05
(PID.TID 0000.0001) %MON trcstat_ptracer50_sd         =   1.3620927481906598E-04
(PID.TID 0000.0001) %MON trcstat_ptracer50_del2       =   0.0000000000000000E+00
(PID.TID 0000.0001) %MON trcstat_ptracer51_max        =   8.6683866367263896E-04
(PID.TID 0000.0001) %MON trcstat_ptracer51_min        =   1.6992725818008517E-27
(PID.TID 0000.0001) %MON trcstat_ptracer51_mean       =   2.5914325518726523E-05
(PID.TID 0000.0001) %MON trcstat_ptracer51_sd         =   1.3584136371948505E-04
(PID.TID 0000.0001) %MON trcstat_ptracer51_del2       =   0.0000000000000000E+00
(PID.TID 0000.0001) %MON trcstat_ptracer52_max        =   8.6691171382244890E-04
(PID.TID 0000.0001) %MON trcstat_ptracer52_min        =   1.3739850072295996E-35
(PID.TID 0000.0001) %MON trcstat_ptracer52_mean       =   2.5982163739328231E-05
(PID.TID 0000.0001) %MON trcstat_ptracer52_sd         =   1.3632392091916877E-04
(PID.TID 0000.0001) %MON trcstat_ptracer52_del2       =   0.0000000000000000E+00
(PID.TID 0000.0001) %MON trcstat_ptracer53_max        =   8.6691171288648600E-04
(PID.TID 0000.0001) %MON trcstat_ptracer53_min        =   1.3739850072295996E-35
(PID.TID 0000.0001) %MON trcstat_ptracer53_mean       =   2.5849548560045173E-05
(PID.TID 0000.0001) %MON trcstat_ptracer53_sd         =   1.3552172203845837E-04
(PID.TID 0000.0001) %MON trcstat_ptracer53_del2       =   0.0000000000000000E+00
(PID.TID 0000.0001) %MON trcstat_ptracer54_max        =   8.6683865064327730E-04
(PID.TID 0000.0001) %MON trcstat_ptracer54_min        =   1.6992725818009073E-27
(PID.TID 0000.0001) %MON trcstat_ptracer54_mean       =   2.5849548567544965E-05
(PID.TID 0000.0001) %MON trcstat_ptracer54_sd         =   1.3545288047748299E-04
(PID.TID 0000.0001) %MON trcstat_ptracer54_del2       =   0.0000000000000000E+00
(PID.TID 0000.0001) %MON trcstat_ptracer55_max        =   8.6691171288648600E-04
(PID.TID 0000.0001) %MON trcstat_ptracer55_min        =   1.3739850072295996E-35
(PID.TID 0000.0001) %MON trcstat_ptracer55_mean       =   2.5849548560044116E-05
(PID.TID 0000.0001) %MON trcstat_ptracer55_sd         =   1.3552172203845205E-04
(PID.TID 0000.0001) %MON trcstat_ptracer55_del2       =   0.0000000000000000E+00
(PID.TID 0000.0001) %MON trcstat_ptracer56_max        =   8.6691171288648600E-04
(PID.TID 0000.0001) %MON trcstat_ptracer56_min        =   1.3739850072295996E-35
(PID.TID 0000.0001) %MON trcstat_ptracer56_mean       =   2.5849548560050323E-05
(PID.TID 0000.0001) %MON trcstat_ptracer56_sd         =   1.3552172203848943E-04
(PID.TID 0000.0001) %MON trcstat_ptracer56_del2       =   0.0000000000000000E+00
(PID.TID 0000.0001) %MON trcstat_ptracer57_max        =   8.6691171288648600E-04
(PID.TID 0000.0001) %MON trcstat_ptracer57_min        =   1.3739850072295996E-35
(PID.TID 0000.0001) %MON trcstat_ptracer57_mean       =   2.5849548560046894E-05
(PID.TID 0000.0001) %MON trcstat_ptracer57_sd         =   1.3552172203846875E-04
(PID.TID 0000.0001) %MON trcstat_ptracer57_del2       =   0.0000000000000000E+00
(PID.TID 0000.0001) %MON trcstat_ptracer58_max        =   8.6683865064327730E-04
(PID.TID 0000.0001) %MON trcstat_ptracer58_min        =   1.6992725818009073E-27
(PID.TID 0000.0001) %MON trcstat_ptracer58_mean       =   2.5849548567549102E-05
(PID.TID 0000.0001) %MON trcstat_ptracer58_sd         =   1.3545288047750781E-04
(PID.TID 0000.0001) %MON trcstat_ptracer58_del2       =   0.0000000000000000E+00
(PID.TID 0000.0001) %MON trcstat_ptracer59_max        =   8.6691171288648600E-04
(PID.TID 0000.0001) %MON trcstat_ptracer59_min        =   1.3739850072295996E-35
(PID.TID 0000.0001) %MON trcstat_ptracer59_mean       =   2.5849548560042974E-05
(PID.TID 0000.0001) %MON trcstat_ptracer59_sd         =   1.3552172203844514E-04
(PID.TID 0000.0001) %MON trcstat_ptracer59_del2       =   0.0000000000000000E+00
(PID.TID 0000.0001) %MON trcstat_ptracer60_max        =   8.6683865037496058E-04
(PID.TID 0000.0001) %MON trcstat_ptracer60_min        =   1.6992725818008517E-27
(PID.TID 0000.0001) %MON trcstat_ptracer60_mean       =   2.5849548560048981E-05
(PID.TID 0000.0001) %MON trcstat_ptracer60_sd         =   1.3545288043713600E-04
(PID.TID 0000.0001) %MON trcstat_ptracer60_del2       =   0.0000000000000000E+00
(PID.TID 0000.0001) %MON trcstat_ptracer61_max        =   8.6691171288648600E-04
(PID.TID 0000.0001) %MON trcstat_ptracer61_min        =   1.3739850072295996E-35
(PID.TID 0000.0001) %MON trcstat_ptracer61_mean       =   2.5849548560050248E-05
(PID.TID 0000.0001) %MON trcstat_ptracer61_sd         =   1.3552172203848897E-04
(PID.TID 0000.0001) %MON trcstat_ptracer61_del2       =   0.0000000000000000E+00
(PID.TID 0000.0001) %MON trcstat_ptracer62_max        =   8.6683865037496058E-04
(PID.TID 0000.0001) %MON trcstat_ptracer62_min        =   1.6992725818008517E-27
(PID.TID 0000.0001) %MON trcstat_ptracer62_mean       =   2.5849548560046860E-05
(PID.TID 0000.0001) %MON trcstat_ptracer62_sd         =   1.3545288043712332E-04
(PID.TID 0000.0001) %MON trcstat_ptracer62_del2       =   0.0000000000000000E+00
(PID.TID 0000.0001) %MON trcstat_ptracer63_max        =   8.6691171300656313E-04
(PID.TID 0000.0001) %MON trcstat_ptracer63_min        =   1.3739850072295996E-35
(PID.TID 0000.0001) %MON trcstat_ptracer63_mean       =   2.5907525690878199E-05
(PID.TID 0000.0001) %MON trcstat_ptracer63_sd         =   1.3587016052485004E-04
(PID.TID 0000.0001) %MON trcstat_ptracer63_del2       =   0.0000000000000000E+00
(PID.TID 0000.0001) %MON trcstat_ptracer64_max        =   8.6683866278821199E-04
(PID.TID 0000.0001) %MON trcstat_ptracer64_min        =   1.6992725818008517E-27
(PID.TID 0000.0001) %MON trcstat_ptracer64_mean       =   2.5997344116363963E-05
(PID.TID 0000.0001) %MON trcstat_ptracer64_sd         =   1.3634403615908348E-04
(PID.TID 0000.0001) %MON trcstat_ptracer64_del2       =   0.0000000000000000E+00
(PID.TID 0000.0001) %MON trcstat_ptracer65_max        =   8.6683865037496058E-04
(PID.TID 0000.0001) %MON trcstat_ptracer65_min        =   1.6992725818008517E-27
(PID.TID 0000.0001) %MON trcstat_ptracer65_mean       =   2.5849548560050299E-05
(PID.TID 0000.0001) %MON trcstat_ptracer65_sd         =   1.3545288043714392E-04
(PID.TID 0000.0001) %MON trcstat_ptracer65_del2       =   0.0000000000000000E+00
(PID.TID 0000.0001) %MON trcstat_ptracer66_max        =   8.6683865037496058E-04
(PID.TID 0000.0001) %MON trcstat_ptracer66_min        =   1.6992725818008517E-27
(PID.TID 0000.0001) %MON trcstat_ptracer66_mean       =   2.5849548560049692E-05
(PID.TID 0000.0001) %MON trcstat_ptracer66_sd         =   1.3545288043714028E-04
(PID.TID 0000.0001) %MON trcstat_ptracer66_del2       =   0.0000000000000000E+00
(PID.TID 0000.0001) %MON trcstat_ptracer67_max        =   8.6683865037496058E-04
(PID.TID 0000.0001) %MON trcstat_ptracer67_min        =   1.6992725818008517E-27
(PID.TID 0000.0001) %MON trcstat_ptracer67_mean       =   2.5849548560048639E-05
(PID.TID 0000.0001) %MON trcstat_ptracer67_sd         =   1.3545288043713397E-04
(PID.TID 0000.0001) %MON trcstat_ptracer67_del2       =   0.0000000000000000E+00
(PID.TID 0000.0001) %MON trcstat_ptracer68_max        =   8.6691171327901771E-04
(PID.TID 0000.0001) %MON trcstat_ptracer68_min        =   1.3739850072295996E-35
(PID.TID 0000.0001) %MON trcstat_ptracer68_mean       =   2.5916855219597194E-05
(PID.TID 0000.0001) %MON trcstat_ptracer68_sd         =   1.3592680017016372E-04
(PID.TID 0000.0001) %MON trcstat_ptracer68_del2       =   0.0000000000000000E+00
(PID.TID 0000.0001) %MON trcstat_ptracer69_max        =   8.6691171288648600E-04
(PID.TID 0000.0001) %MON trcstat_ptracer69_min        =   1.3739850072295996E-35
(PID.TID 0000.0001) %MON trcstat_ptracer69_mean       =   2.5849548560051424E-05
(PID.TID 0000.0001) %MON trcstat_ptracer69_sd         =   1.3552172203849604E-04
(PID.TID 0000.0001) %MON trcstat_ptracer69_del2       =   0.0000000000000000E+00
(PID.TID 0000.0001) %MON trcstat_ptracer70_max        =   8.6683865064327730E-04
(PID.TID 0000.0001) %MON trcstat_ptracer70_min        =   1.6992725818009073E-27
(PID.TID 0000.0001) %MON trcstat_ptracer70_mean       =   2.5849548567548746E-05
(PID.TID 0000.0001) %MON trcstat_ptracer70_sd         =   1.3545288047750573E-04
(PID.TID 0000.0001) %MON trcstat_ptracer70_del2       =   0.0000000000000000E+00
(PID.TID 0000.0001) %MON trcstat_ptracer71_max        =   8.6683865064327730E-04
(PID.TID 0000.0001) %MON trcstat_ptracer71_min        =   1.6992725818009073E-27
(PID.TID 0000.0001) %MON trcstat_ptracer71_mean       =   2.5849548567546988E-05
(PID.TID 0000.0001) %MON trcstat_ptracer71_sd         =   1.3545288047749513E-04
(PID.TID 0000.0001) %MON trcstat_ptracer71_del2       =   0.0000000000000000E+00
(PID.TID 0000.0001) %MON trcstat_ptracer72_max        =   8.6683865037496058E-04
(PID.TID 0000.0001) %MON trcstat_ptracer72_min        =   1.6992725818008517E-27
(PID.TID 0000.0001) %MON trcstat_ptracer72_mean       =   2.5849548560046843E-05
(PID.TID 0000.0001) %MON trcstat_ptracer72_sd         =   1.3545288043712321E-04
(PID.TID 0000.0001) %MON trcstat_ptracer72_del2       =   0.0000000000000000E+00
(PID.TID 0000.0001) %MON trcstat_ptracer73_max        =   8.6683866414651858E-04
(PID.TID 0000.0001) %MON trcstat_ptracer73_min        =   1.6992725818008517E-27
(PID.TID 0000.0001) %MON trcstat_ptracer73_mean       =   2.5999625515258056E-05
(PID.TID 0000.0001) %MON trcstat_ptracer73_sd         =   1.3635790812292523E-04
(PID.TID 0000.0001) %MON trcstat_ptracer73_del2       =   0.0000000000000000E+00
(PID.TID 0000.0001) %MON trcstat_ptracer74_max        =   8.6683865064327730E-04
(PID.TID 0000.0001) %MON trcstat_ptracer74_min        =   1.6992725818009073E-27
(PID.TID 0000.0001) %MON trcstat_ptracer74_mean       =   2.5849548567548794E-05
(PID.TID 0000.0001) %MON trcstat_ptracer74_sd         =   1.3545288047750597E-04
(PID.TID 0000.0001) %MON trcstat_ptracer74_del2       =   0.0000000000000000E+00
(PID.TID 0000.0001) %MON trcstat_ptracer75_max        =   8.6683866651165520E-04
(PID.TID 0000.0001) %MON trcstat_ptracer75_min        =   1.6992725818008517E-27
(PID.TID 0000.0001) %MON trcstat_ptracer75_mean       =   2.6013020649986796E-05
(PID.TID 0000.0001) %MON trcstat_ptracer75_sd         =   1.3643981836788035E-04
(PID.TID 0000.0001) %MON trcstat_ptracer75_del2       =   0.0000000000000000E+00
(PID.TID 0000.0001) %MON trcstat_ptracer76_max        =   8.6683866425940712E-04
(PID.TID 0000.0001) %MON trcstat_ptracer76_min        =   1.6992725818009073E-27
(PID.TID 0000.0001) %MON trcstat_ptracer76_mean       =   2.5888790692928080E-05
(PID.TID 0000.0001) %MON trcstat_ptracer76_sd         =   1.3568821113831920E-04
(PID.TID 0000.0001) %MON trcstat_ptracer76_del2       =   0.0000000000000000E+00
(PID.TID 0000.0001) %MON trcstat_ptracer77_max        =   8.6683865037496058E-04
(PID.TID 0000.0001) %MON trcstat_ptracer77_min        =   1.6992725818008517E-27
(PID.TID 0000.0001) %MON trcstat_ptracer77_mean       =   2.5849548560051654E-05
(PID.TID 0000.0001) %MON trcstat_ptracer77_sd         =   1.3545288043715208E-04
(PID.TID 0000.0001) %MON trcstat_ptracer77_del2       =   0.0000000000000000E+00
(PID.TID 0000.0001) %MON trcstat_ptracer78_max        =   8.6683865956360933E-04
(PID.TID 0000.0001) %MON trcstat_ptracer78_min        =   1.6992725818008517E-27
(PID.TID 0000.0001) %MON trcstat_ptracer78_mean       =   2.5862897691765650E-05
(PID.TID 0000.0001) %MON trcstat_ptracer78_sd         =   1.3553312202724296E-04
(PID.TID 0000.0001) %MON trcstat_ptracer78_del2       =   0.0000000000000000E+00
(PID.TID 0000.0001) %MON trcstat_ptracer79_max        =   8.6683865037496058E-04
(PID.TID 0000.0001) %MON trcstat_ptracer79_min        =   1.6992725818008517E-27
(PID.TID 0000.0001) %MON trcstat_ptracer79_mean       =   2.5849548560049235E-05
(PID.TID 0000.0001) %MON trcstat_ptracer79_sd         =   1.3545288043713755E-04
(PID.TID 0000.0001) %MON trcstat_ptracer79_del2       =   0.0000000000000000E+00
(PID.TID 0000.0001) %MON trcstat_ptracer80_max        =   8.6683865037496058E-04
(PID.TID 0000.0001) %MON trcstat_ptracer80_min        =   1.6992725818008517E-27
(PID.TID 0000.0001) %MON trcstat_ptracer80_mean       =   2.5849548560046514E-05
(PID.TID 0000.0001) %MON trcstat_ptracer80_sd         =   1.3545288043712120E-04
(PID.TID 0000.0001) %MON trcstat_ptracer80_del2       =   0.0000000000000000E+00
(PID.TID 0000.0001) %MON trcstat_ptracer81_max        =   8.6683866683650722E-04
(PID.TID 0000.0001) %MON trcstat_ptracer81_min        =   1.6992725818009073E-27
(PID.TID 0000.0001) %MON trcstat_ptracer81_mean       =   2.5935952634083395E-05
(PID.TID 0000.0001) %MON trcstat_ptracer81_sd         =   1.3597174464432778E-04
(PID.TID 0000.0001) %MON trcstat_ptracer81_del2       =   0.0000000000000000E+00
(PID.TID 0000.0001) %MON trcstat_ptracer82_max        =   8.6691171288648600E-04
(PID.TID 0000.0001) %MON trcstat_ptracer82_min        =   1.3739850072295996E-35
(PID.TID 0000.0001) %MON trcstat_ptracer82_mean       =   2.5849548560042696E-05
(PID.TID 0000.0001) %MON trcstat_ptracer82_sd         =   1.3552172203844349E-04
(PID.TID 0000.0001) %MON trcstat_ptracer82_del2       =   0.0000000000000000E+00
(PID.TID 0000.0001) %MON trcstat_ptracer83_max        =   8.6683865064327730E-04
(PID.TID 0000.0001) %MON trcstat_ptracer83_min        =   1.6992725818009073E-27
(PID.TID 0000.0001) %MON trcstat_ptracer83_mean       =   2.5849548567545216E-05
(PID.TID 0000.0001) %MON trcstat_ptracer83_sd         =   1.3545288047748448E-04
(PID.TID 0000.0001) %MON trcstat_ptracer83_del2       =   0.0000000000000000E+00
(PID.TID 0000.0001) %MON trcstat_ptracer84_max        =   8.6691171288648600E-04
(PID.TID 0000.0001) %MON trcstat_ptracer84_min        =   1.3739850072295996E-35
(PID.TID 0000.0001) %MON trcstat_ptracer84_mean       =   2.5849548560040219E-05
(PID.TID 0000.0001) %MON trcstat_ptracer84_sd         =   1.3552172203842852E-04
(PID.TID 0000.0001) %MON trcstat_ptracer84_del2       =   0.0000000000000000E+00
(PID.TID 0000.0001) %MON trcstat_ptracer85_max        =   8.6683865037496058E-04
(PID.TID 0000.0001) %MON trcstat_ptracer85_min        =   1.6992725818008517E-27
(PID.TID 0000.0001) %MON trcstat_ptracer85_mean       =   2.5849548560048557E-05
(PID.TID 0000.0001) %MON trcstat_ptracer85_sd         =   1.3545288043713348E-04
(PID.TID 0000.0001) %MON trcstat_ptracer85_del2       =   0.0000000000000000E+00
(PID.TID 0000.0001) %MON trcstat_ptracer86_max        =   8.6683866276382547E-04
(PID.TID 0000.0001) %MON trcstat_ptracer86_min        =   1.6992725818009073E-27
(PID.TID 0000.0001) %MON trcstat_ptracer86_mean       =   2.5871867520884939E-05
(PID.TID 0000.0001) %MON trcstat_ptracer86_sd         =   1.3558690446334001E-04
(PID.TID 0000.0001) %MON trcstat_ptracer86_del2       =   0.0000000000000000E+00
(PID.TID 0000.0001) %MON trcstat_ptracer87_max        =   8.6691171336386358E-04
(PID.TID 0000.0001) %MON trcstat_ptracer87_min        =   1.3739850072295996E-35
(PID.TID 0000.0001) %MON trcstat_ptracer87_mean       =   2.5968214322588376E-05
(PID.TID 0000.0001) %MON trcstat_ptracer87_sd         =   1.3623901872616105E-04
(PID.TID 0000.0001) %MON trcstat_ptracer87_del2       =   0.0000000000000000E+00
(PID.TID 0000.0001) %MON trcstat_ptracer88_max        =   8.6691171288648600E-04
(PID.TID 0000.0001) %MON trcstat_ptracer88_min        =   1.3739850072295996E-35
(PID.TID 0000.0001) %MON trcstat_ptracer88_mean       =   2.5849548560042462E-05
(PID.TID 0000.0001) %MON trcstat_ptracer88_sd         =   1.3552172203844202E-04
(PID.TID 0000.0001) %MON trcstat_ptracer88_del2       =   0.0000000000000000E+00
(PID.TID 0000.0001) %MON trcstat_ptracer89_max        =   8.6691171288648600E-04
(PID.TID 0000.0001) %MON trcstat_ptracer89_min        =   1.3739850072295996E-35
(PID.TID 0000.0001) %MON trcstat_ptracer89_mean       =   2.5849548560040988E-05
(PID.TID 0000.0001) %MON trcstat_ptracer89_sd         =   1.3552172203843319E-04
(PID.TID 0000.0001) %MON trcstat_ptracer89_del2       =   0.0000000000000000E+00
(PID.TID 0000.0001) %MON trcstat_ptracer90_max        =   8.6683865064327730E-04
(PID.TID 0000.0001) %MON trcstat_ptracer90_min        =   1.6992725818009073E-27
(PID.TID 0000.0001) %MON trcstat_ptracer90_mean       =   2.5849548567548844E-05
(PID.TID 0000.0001) %MON trcstat_ptracer90_sd         =   1.3545288047750630E-04
(PID.TID 0000.0001) %MON trcstat_ptracer90_del2       =   0.0000000000000000E+00
(PID.TID 0000.0001) %MON trcstat_ptracer91_max        =   8.6691171288648600E-04
(PID.TID 0000.0001) %MON trcstat_ptracer91_min        =   1.3739850072295996E-35
(PID.TID 0000.0001) %MON trcstat_ptracer91_mean       =   2.5849548560041859E-05
(PID.TID 0000.0001) %MON trcstat_ptracer91_sd         =   1.3552172203843839E-04
(PID.TID 0000.0001) %MON trcstat_ptracer91_del2       =   0.0000000000000000E+00
(PID.TID 0000.0001) %MON trcstat_ptracer92_max        =   8.6683865980141130E-04
(PID.TID 0000.0001) %MON trcstat_ptracer92_min        =   1.6992725818008517E-27
(PID.TID 0000.0001) %MON trcstat_ptracer92_mean       =   2.5862884608852557E-05
(PID.TID 0000.0001) %MON trcstat_ptracer92_sd         =   1.3553307987198741E-04
(PID.TID 0000.0001) %MON trcstat_ptracer92_del2       =   0.0000000000000000E+00
(PID.TID 0000.0001) %MON trcstat_ptracer93_max        =   8.6683865064327730E-04
(PID.TID 0000.0001) %MON trcstat_ptracer93_min        =   1.6992725818009073E-27
(PID.TID 0000.0001) %MON trcstat_ptracer93_mean       =   2.5849548567545260E-05
(PID.TID 0000.0001) %MON trcstat_ptracer93_sd         =   1.3545288047748475E-04
(PID.TID 0000.0001) %MON trcstat_ptracer93_del2       =   0.0000000000000000E+00
(PID.TID 0000.0001) %MON trcstat_ptracer94_max        =   8.6683866385413224E-04
(PID.TID 0000.0001) %MON trcstat_ptracer94_min        =   1.6992725818009073E-27
(PID.TID 0000.0001) %MON trcstat_ptracer94_mean       =   2.5992360806848663E-05
(PID.TID 0000.0001) %MON trcstat_ptracer94_sd         =   1.3631352396077458E-04
(PID.TID 0000.0001) %MON trcstat_ptracer94_del2       =   0.0000000000000000E+00
(PID.TID 0000.0001) %MON trcstat_ptracer95_max        =   8.6683865037496058E-04
(PID.TID 0000.0001) %MON trcstat_ptracer95_min        =   1.6992725818008517E-27
(PID.TID 0000.0001) %MON trcstat_ptracer95_mean       =   2.5849548560046206E-05
(PID.TID 0000.0001) %MON trcstat_ptracer95_sd         =   1.3545288043711936E-04
(PID.TID 0000.0001) %MON trcstat_ptracer95_del2       =   0.0000000000000000E+00
(PID.TID 0000.0001) %MON trcstat_ptracer96_max        =   8.6691171303075873E-04
(PID.TID 0000.0001) %MON trcstat_ptracer96_min        =   1.3739850072295996E-35
(PID.TID 0000.0001) %MON trcstat_ptracer96_mean       =   2.5923556913858446E-05
(PID.TID 0000.0001) %MON trcstat_ptracer96_sd         =   1.3596742853715172E-04
(PID.TID 0000.0001) %MON trcstat_ptracer96_del2       =   0.0000000000000000E+00
(PID.TID 0000.0001) %MON trcstat_ptracer97_max        =   1.2365300882106141E-07
(PID.TID 0000.0001) %MON trcstat_ptracer97_min        =   9.6539308657082459E-34
(PID.TID 0000.0001) %MON trcstat_ptracer97_mean       =   1.6351650402409972E-08
(PID.TID 0000.0001) %MON trcstat_ptracer97_sd         =   2.9908440369014542E-08
(PID.TID 0000.0001) %MON trcstat_ptracer97_del2       =   0.0000000000000000E+00
(PID.TID 0000.0001) %MON trcstat_ptracer98_max        =   1.2365576214287028E-07
(PID.TID 0000.0001) %MON trcstat_ptracer98_min        =   9.6539308657108734E-34
(PID.TID 0000.0001) %MON trcstat_ptracer98_mean       =   1.6351728618735670E-08
(PID.TID 0000.0001) %MON trcstat_ptracer98_sd         =   2.9908702595197463E-08
(PID.TID 0000.0001) %MON trcstat_ptracer98_del2       =   0.0000000000000000E+00
(PID.TID 0000.0001) // =======================================================
(PID.TID 0000.0001) // End MONITOR ptracers field statistics
(PID.TID 0000.0001) // =======================================================
 Computing Diagnostic #    140  TRAC01       Counter:       1   Parms: SMR     MR      
 Computing Diagnostic #    152  TRAC02       Counter:       1   Parms: SMR     MR      
 Computing Diagnostic #    164  TRAC03       Counter:       1   Parms: SMR     MR      
 Computing Diagnostic #    176  TRAC04       Counter:       1   Parms: SMR     MR      
 Computing Diagnostic #    188  TRAC05       Counter:       1   Parms: SMR     MR      
 Computing Diagnostic #    200  TRAC06       Counter:       1   Parms: SMR     MR      
 Computing Diagnostic #    212  TRAC07       Counter:       1   Parms: SMR     MR      
 Computing Diagnostic #    224  TRAC08       Counter:       1   Parms: SMR     MR      
 Computing Diagnostic #    236  TRAC09       Counter:       1   Parms: SMR     MR      
 Computing Diagnostic #    248  TRAC10       Counter:       1   Parms: SMR     MR      
 Computing Diagnostic #    260  TRAC11       Counter:       1   Parms: SMR     MR      
 Computing Diagnostic #    272  TRAC12       Counter:       1   Parms: SMR     MR      
 Computing Diagnostic #    284  TRAC13       Counter:       1   Parms: SMR     MR      
 Computing Diagnostic #    296  TRAC14       Counter:       1   Parms: SMR     MR      
 Computing Diagnostic #    308  TRAC15       Counter:       1   Parms: SMR     MR      
 Computing Diagnostic #    320  TRAC16       Counter:       1   Parms: SMR     MR      
 Computing Diagnostic #    332  TRAC17       Counter:       1   Parms: SMR     MR      
 Computing Diagnostic #    344  TRAC18       Counter:       1   Parms: SMR     MR      
 Computing Diagnostic #    356  TRAC19       Counter:       1   Parms: SMR     MR      
 Computing Diagnostic #    368  TRAC20       Counter:       1   Parms: SMR     MR      
 Computing Diagnostic #    380  TRAC21       Counter:       1   Parms: SMR     MR      
 Computing Diagnostic #    392  TRAC22       Counter:       1   Parms: SMR     MR      
 Computing Diagnostic #    404  TRAC23       Counter:       1   Parms: SMR     MR      
 Computing Diagnostic #    416  TRAC24       Counter:       1   Parms: SMR     MR      
 Computing Diagnostic #    428  TRAC25       Counter:       1   Parms: SMR     MR      
 Computing Diagnostic #    440  TRAC26       Counter:       1   Parms: SMR     MR      
 Computing Diagnostic #    452  TRAC27       Counter:       1   Parms: SMR     MR      
 Computing Diagnostic #    464  TRAC28       Counter:       1   Parms: SMR     MR      
 Computing Diagnostic #    476  TRAC29       Counter:       1   Parms: SMR     MR      
 Computing Diagnostic #    488  TRAC30       Counter:       1   Parms: SMR     MR      
 Computing Diagnostic #    500  TRAC31       Counter:       1   Parms: SMR     MR      
 Computing Diagnostic #    512  TRAC32       Counter:       1   Parms: SMR     MR      
 Computing Diagnostic #    524  TRAC33       Counter:       1   Parms: SMR     MR      
 Computing Diagnostic #    536  TRAC34       Counter:       1   Parms: SMR     MR      
 Computing Diagnostic #    548  TRAC35       Counter:       1   Parms: SMR     MR      
 Computing Diagnostic #    560  TRAC36       Counter:       1   Parms: SMR     MR      
 Computing Diagnostic #    572  TRAC37       Counter:       1   Parms: SMR     MR      
 Computing Diagnostic #    584  TRAC38       Counter:       1   Parms: SMR     MR      
 Computing Diagnostic #    596  TRAC39       Counter:       1   Parms: SMR     MR      
 Computing Diagnostic #    608  TRAC40       Counter:       1   Parms: SMR     MR      
 Computing Diagnostic #    620  TRAC41       Counter:       1   Parms: SMR     MR      
 Computing Diagnostic #    632  TRAC42       Counter:       1   Parms: SMR     MR      
 Computing Diagnostic #    644  TRAC43       Counter:       1   Parms: SMR     MR      
 Computing Diagnostic #    656  TRAC44       Counter:       1   Parms: SMR     MR      
 Computing Diagnostic #    668  TRAC45       Counter:       1   Parms: SMR     MR      
 Computing Diagnostic #    680  TRAC46       Counter:       1   Parms: SMR     MR      
 Computing Diagnostic #    692  TRAC47       Counter:       1   Parms: SMR     MR      
 Computing Diagnostic #    704  TRAC48       Counter:       1   Parms: SMR     MR      
 Computing Diagnostic #    716  TRAC49       Counter:       1   Parms: SMR     MR      
 Computing Diagnostic #    728  TRAC50       Counter:       1   Parms: SMR     MR      
 Computing Diagnostic #    740  TRAC51       Counter:       1   Parms: SMR     MR      
 Computing Diagnostic #    752  TRAC52       Counter:       1   Parms: SMR     MR      
 Computing Diagnostic #    764  TRAC53       Counter:       1   Parms: SMR     MR      
 Computing Diagnostic #    776  TRAC54       Counter:       1   Parms: SMR     MR      
 Computing Diagnostic #    788  TRAC55       Counter:       1   Parms: SMR     MR      
 Computing Diagnostic #    800  TRAC56       Counter:       1   Parms: SMR     MR      
 Computing Diagnostic #    812  TRAC57       Counter:       1   Parms: SMR     MR      
 Computing Diagnostic #    824  TRAC58       Counter:       1   Parms: SMR     MR      
 Computing Diagnostic #    836  TRAC59       Counter:       1   Parms: SMR     MR      
 Computing Diagnostic #    848  TRAC60       Counter:       1   Parms: SMR     MR      
 Computing Diagnostic #    860  TRAC61       Counter:       1   Parms: SMR     MR      
 Computing Diagnostic #    872  TRAC62       Counter:       1   Parms: SMR     MR      
 Computing Diagnostic #    884  TRAC63       Counter:       1   Parms: SMR     MR      
 Computing Diagnostic #    896  TRAC64       Counter:       1   Parms: SMR     MR      
 Computing Diagnostic #    908  TRAC65       Counter:       1   Parms: SMR     MR      
 Computing Diagnostic #    920  TRAC66       Counter:       1   Parms: SMR     MR      
 Computing Diagnostic #    932  TRAC67       Counter:       1   Parms: SMR     MR      
 Computing Diagnostic #    944  TRAC68       Counter:       1   Parms: SMR     MR      
 Computing Diagnostic #    956  TRAC69       Counter:       1   Parms: SMR     MR      
 Computing Diagnostic #    968  TRAC70       Counter:       1   Parms: SMR     MR      
 Computing Diagnostic #    980  TRAC71       Counter:       1   Parms: SMR     MR      
 Computing Diagnostic #    992  TRAC72       Counter:       1   Parms: SMR     MR      
 Computing Diagnostic #   1004  TRAC73       Counter:       1   Parms: SMR     MR      
 Computing Diagnostic #   1016  TRAC74       Counter:       1   Parms: SMR     MR      
 Computing Diagnostic #   1028  TRAC75       Counter:       1   Parms: SMR     MR      
 Computing Diagnostic #   1040  TRAC76       Counter:       1   Parms: SMR     MR      
 Computing Diagnostic #   1052  TRAC77       Counter:       1   Parms: SMR     MR      
 Computing Diagnostic #   1064  TRAC78       Counter:       1   Parms: SMR     MR      
 Computing Diagnostic #   1076  TRAC79       Counter:       1   Parms: SMR     MR      
 Computing Diagnostic #   1088  TRAC80       Counter:       1   Parms: SMR     MR      
 Computing Diagnostic #   1100  TRAC81       Counter:       1   Parms: SMR     MR      
 Computing Diagnostic #   1112  TRAC82       Counter:       1   Parms: SMR     MR      
 Computing Diagnostic #   1124  TRAC83       Counter:       1   Parms: SMR     MR      
 Computing Diagnostic #   1136  TRAC84       Counter:       1   Parms: SMR     MR      
 Computing Diagnostic #   1148  TRAC85       Counter:       1   Parms: SMR     MR      
 Computing Diagnostic #   1160  TRAC86       Counter:       1   Parms: SMR     MR      
 Computing Diagnostic #   1172  TRAC87       Counter:       1   Parms: SMR     MR      
 Computing Diagnostic #   1184  TRAC88       Counter:       1   Parms: SMR     MR      
 Computing Diagnostic #   1196  TRAC89       Counter:       1   Parms: SMR     MR      
 Computing Diagnostic #   1208  TRAC90       Counter:       1   Parms: SMR     MR      
 Computing Diagnostic #   1220  TRAC91       Counter:       1   Parms: SMR     MR      
 Computing Diagnostic #   1232  TRAC92       Counter:       1   Parms: SMR     MR      
 Computing Diagnostic #   1244  TRAC93       Counter:       1   Parms: SMR     MR      
 Computing Diagnostic #   1256  TRAC94       Counter:       1   Parms: SMR     MR      
 Computing Diagnostic #   1268  TRAC95       Counter:       1   Parms: SMR     MR      
 Computing Diagnostic #   1280  TRAC96       Counter:       1   Parms: SMR     MR      
 Computing Diagnostic #   1292  TRAC97       Counter:       1   Parms: SMR     MR      
 Computing Diagnostic #   1304  TRAC98       Counter:       1   Parms: SMR     MR      
(PID.TID 0000.0001) %CHECKPOINT         4 ckptA
(PID.TID 0000.0001)   Seconds in section "ALL                    [THE_MODEL_MAIN]":
(PID.TID 0000.0001)           User time:   2.2400000000000002
(PID.TID 0000.0001)         System time:  0.14999999999999999
(PID.TID 0000.0001)     Wall clock time:   63.904589176177979
(PID.TID 0000.0001)          No. starts:           1
(PID.TID 0000.0001)           No. stops:           1
(PID.TID 0000.0001)   Seconds in section "INITIALISE_FIXED       [THE_MODEL_MAIN]":
(PID.TID 0000.0001)           User time:  0.50000000000000000
(PID.TID 0000.0001)         System time:   2.0000000000000000E-002
(PID.TID 0000.0001)     Wall clock time:   1.7342510223388672
(PID.TID 0000.0001)          No. starts:           1
(PID.TID 0000.0001)           No. stops:           1
(PID.TID 0000.0001)   Seconds in section "THE_MAIN_LOOP          [THE_MODEL_MAIN]":
(PID.TID 0000.0001)           User time:   1.7400000000000002
(PID.TID 0000.0001)         System time:  0.13000000000000000
(PID.TID 0000.0001)     Wall clock time:   62.169764041900635
(PID.TID 0000.0001)          No. starts:           1
(PID.TID 0000.0001)           No. stops:           1
(PID.TID 0000.0001)   Seconds in section "INITIALISE_VARIA    [THE_MAIN_LOOP]":
(PID.TID 0000.0001)           User time:   8.9999999999999969E-002
(PID.TID 0000.0001)         System time:   2.0000000000000000E-002
(PID.TID 0000.0001)     Wall clock time:   6.1159911155700684
(PID.TID 0000.0001)          No. starts:           1
(PID.TID 0000.0001)           No. stops:           1
(PID.TID 0000.0001)   Seconds in section "MAIN LOOP           [THE_MAIN_LOOP]":
(PID.TID 0000.0001)           User time:   1.6500000000000004
(PID.TID 0000.0001)         System time:  0.10999999999999999
(PID.TID 0000.0001)     Wall clock time:   56.053735971450806
(PID.TID 0000.0001)          No. starts:           1
(PID.TID 0000.0001)           No. stops:           1
(PID.TID 0000.0001)   Seconds in section "FORWARD_STEP        [THE_MAIN_LOOP]":
(PID.TID 0000.0001)           User time:   1.6500000000000004
(PID.TID 0000.0001)         System time:  0.10999999999999999
(PID.TID 0000.0001)     Wall clock time:   56.053684949874878
(PID.TID 0000.0001)          No. starts:           4
(PID.TID 0000.0001)           No. stops:           4
(PID.TID 0000.0001)   Seconds in section "DO_STATEVARS_DIAGS  [FORWARD_STEP]":
(PID.TID 0000.0001)           User time:   0.0000000000000000
(PID.TID 0000.0001)         System time:   0.0000000000000000
(PID.TID 0000.0001)     Wall clock time:   6.2661170959472656E-003
(PID.TID 0000.0001)          No. starts:           8
(PID.TID 0000.0001)           No. stops:           8
(PID.TID 0000.0001)   Seconds in section "LOAD_FIELDS_DRIVER  [FORWARD_STEP]":
(PID.TID 0000.0001)           User time:   2.0000000000000018E-002
(PID.TID 0000.0001)         System time:   0.0000000000000000
(PID.TID 0000.0001)     Wall clock time:   1.0179281234741211E-002
(PID.TID 0000.0001)          No. starts:           4
(PID.TID 0000.0001)           No. stops:           4
(PID.TID 0000.0001)   Seconds in section "EXF_GETFORCING     [LOAD_FLDS_DRIVER]":
(PID.TID 0000.0001)           User time:   1.0000000000000009E-002
(PID.TID 0000.0001)         System time:   0.0000000000000000
(PID.TID 0000.0001)     Wall clock time:   2.3958683013916016E-003
(PID.TID 0000.0001)          No. starts:           4
(PID.TID 0000.0001)           No. stops:           4
(PID.TID 0000.0001)   Seconds in section "EXTERNAL_FLDS_LOAD [LOAD_FLDS_DRIVER]":
(PID.TID 0000.0001)           User time:   0.0000000000000000
(PID.TID 0000.0001)         System time:   0.0000000000000000
(PID.TID 0000.0001)     Wall clock time:   2.2721290588378906E-004
(PID.TID 0000.0001)          No. starts:           4
(PID.TID 0000.0001)           No. stops:           4
(PID.TID 0000.0001)   Seconds in section "DO_ATMOSPHERIC_PHYS [FORWARD_STEP]":
(PID.TID 0000.0001)           User time:   0.0000000000000000
(PID.TID 0000.0001)         System time:   0.0000000000000000
(PID.TID 0000.0001)     Wall clock time:   4.0769577026367188E-005
(PID.TID 0000.0001)          No. starts:           4
(PID.TID 0000.0001)           No. stops:           4
(PID.TID 0000.0001)   Seconds in section "DO_OCEANIC_PHYS     [FORWARD_STEP]":
(PID.TID 0000.0001)           User time:   0.0000000000000000
(PID.TID 0000.0001)         System time:   0.0000000000000000
(PID.TID 0000.0001)     Wall clock time:   9.3817710876464844E-004
(PID.TID 0000.0001)          No. starts:           4
(PID.TID 0000.0001)           No. stops:           4
(PID.TID 0000.0001)   Seconds in section "GCHEM_CALC_TENDENCY [FORWARD_STEP]":
(PID.TID 0000.0001)           User time:   0.0000000000000000
(PID.TID 0000.0001)         System time:   0.0000000000000000
(PID.TID 0000.0001)     Wall clock time:   4.0054321289062500E-005
(PID.TID 0000.0001)          No. starts:           4
(PID.TID 0000.0001)           No. stops:           4
(PID.TID 0000.0001)   Seconds in section "THERMODYNAMICS      [FORWARD_STEP]":
(PID.TID 0000.0001)           User time:  0.22000000000000042
(PID.TID 0000.0001)         System time:   0.0000000000000000
(PID.TID 0000.0001)     Wall clock time:  0.22893524169921875
(PID.TID 0000.0001)          No. starts:           4
(PID.TID 0000.0001)           No. stops:           4
(PID.TID 0000.0001)   Seconds in section "TRC_CORRECTION_STEP [FORWARD_STEP]":
(PID.TID 0000.0001)           User time:   2.0000000000000018E-002
(PID.TID 0000.0001)         System time:   0.0000000000000000
(PID.TID 0000.0001)     Wall clock time:   1.6448974609375000E-002
(PID.TID 0000.0001)          No. starts:           4
(PID.TID 0000.0001)           No. stops:           4
(PID.TID 0000.0001)   Seconds in section "GCHEM_FORCING_SEP  [FORWARD_STEP]":
(PID.TID 0000.0001)           User time:  0.24999999999999978
(PID.TID 0000.0001)         System time:   0.0000000000000000
(PID.TID 0000.0001)     Wall clock time:  0.25487208366394043
(PID.TID 0000.0001)          No. starts:           4
(PID.TID 0000.0001)           No. stops:           4
(PID.TID 0000.0001)   Seconds in section "DARWIN_FORCING [GCHEM_FORCING_SEP]":
(PID.TID 0000.0001)           User time:  0.23999999999999999
(PID.TID 0000.0001)         System time:   0.0000000000000000
(PID.TID 0000.0001)     Wall clock time:  0.24828290939331055
(PID.TID 0000.0001)          No. starts:           4
(PID.TID 0000.0001)           No. stops:           4
(PID.TID 0000.0001)   Seconds in section "DARWIN_LIGHT [DARWIN_FORCING]":
(PID.TID 0000.0001)           User time:   4.0000000000000036E-002
(PID.TID 0000.0001)         System time:   0.0000000000000000
(PID.TID 0000.0001)     Wall clock time:   4.0899753570556641E-002
(PID.TID 0000.0001)          No. starts:           4
(PID.TID 0000.0001)           No. stops:           4
(PID.TID 0000.0001)   Seconds in section "DARWIN_FE_CHEM1 [DARWIN_FORCING]":
(PID.TID 0000.0001)           User time:   0.0000000000000000
(PID.TID 0000.0001)         System time:   0.0000000000000000
(PID.TID 0000.0001)     Wall clock time:   8.1062316894531250E-005
(PID.TID 0000.0001)          No. starts:           4
(PID.TID 0000.0001)           No. stops:           4
(PID.TID 0000.0001)   Seconds in section "DARWIN_MODEL [DARWIN_FORCING]":
(PID.TID 0000.0001)           User time:  0.17999999999999972
(PID.TID 0000.0001)         System time:   0.0000000000000000
(PID.TID 0000.0001)     Wall clock time:  0.18844890594482422
(PID.TID 0000.0001)          No. starts:           4
(PID.TID 0000.0001)           No. stops:           4
(PID.TID 0000.0001)   Seconds in section "DARWIN_GRAZING [DARWIN_FORCING]":
(PID.TID 0000.0001)           User time:   0.0000000000000000
(PID.TID 0000.0001)         System time:   0.0000000000000000
(PID.TID 0000.0001)     Wall clock time:   3.2761096954345703E-003
(PID.TID 0000.0001)          No. starts:           4
(PID.TID 0000.0001)           No. stops:           4
(PID.TID 0000.0001)   Seconds in section "DARWIN_SINKING [DARWIN_FORCING]":
(PID.TID 0000.0001)           User time:   2.0000000000000018E-002
(PID.TID 0000.0001)         System time:   0.0000000000000000
(PID.TID 0000.0001)     Wall clock time:   1.5056133270263672E-002
(PID.TID 0000.0001)          No. starts:           4
(PID.TID 0000.0001)           No. stops:           4
(PID.TID 0000.0001)   Seconds in section "DIAGS_FILL [DARWIN_FORCING]":
(PID.TID 0000.0001)           User time:   0.0000000000000000
(PID.TID 0000.0001)         System time:   0.0000000000000000
(PID.TID 0000.0001)     Wall clock time:   2.2196769714355469E-004
(PID.TID 0000.0001)          No. starts:           4
(PID.TID 0000.0001)           No. stops:           4
(PID.TID 0000.0001)   Seconds in section "DARWIN_FE_CHEM1 [GCHEM_FORCING_SEP]":
(PID.TID 0000.0001)           User time:   0.0000000000000000
(PID.TID 0000.0001)         System time:   0.0000000000000000
(PID.TID 0000.0001)     Wall clock time:   7.7724456787109375E-005
(PID.TID 0000.0001)          No. starts:           4
(PID.TID 0000.0001)           No. stops:           4
(PID.TID 0000.0001)   Seconds in section "BLOCKING_EXCHANGES  [FORWARD_STEP]":
(PID.TID 0000.0001)           User time:   1.0000000000000009E-002
(PID.TID 0000.0001)         System time:   0.0000000000000000
(PID.TID 0000.0001)     Wall clock time:   1.2839555740356445E-002
(PID.TID 0000.0001)          No. starts:           4
(PID.TID 0000.0001)           No. stops:           4
(PID.TID 0000.0001)   Seconds in section "DO_STATEVARS_TAVE   [FORWARD_STEP]":
(PID.TID 0000.0001)           User time:   0.0000000000000000
(PID.TID 0000.0001)         System time:   0.0000000000000000
(PID.TID 0000.0001)     Wall clock time:   1.2559890747070313E-003
(PID.TID 0000.0001)          No. starts:           4
(PID.TID 0000.0001)           No. stops:           4
(PID.TID 0000.0001)   Seconds in section "MONITOR             [FORWARD_STEP]":
(PID.TID 0000.0001)           User time:   0.0000000000000000
(PID.TID 0000.0001)         System time:   0.0000000000000000
(PID.TID 0000.0001)     Wall clock time:   4.1210651397705078E-003
(PID.TID 0000.0001)          No. starts:           4
(PID.TID 0000.0001)           No. stops:           4
(PID.TID 0000.0001)   Seconds in section "DO_THE_MODEL_IO     [FORWARD_STEP]":
(PID.TID 0000.0001)           User time:   1.1200000000000001
(PID.TID 0000.0001)         System time:  0.10999999999999999
(PID.TID 0000.0001)     Wall clock time:   55.512383937835693
(PID.TID 0000.0001)          No. starts:           4
(PID.TID 0000.0001)           No. stops:           4
(PID.TID 0000.0001)   Seconds in section "DO_WRITE_PICKUP     [FORWARD_STEP]":
(PID.TID 0000.0001)           User time:   1.0000000000000231E-002
(PID.TID 0000.0001)         System time:   0.0000000000000000
(PID.TID 0000.0001)     Wall clock time:   4.7252178192138672E-003
(PID.TID 0000.0001)          No. starts:           4
(PID.TID 0000.0001)           No. stops:           4
(PID.TID 0000.0001) // ======================================================
(PID.TID 0000.0001) // Tile <-> Tile communication statistics
(PID.TID 0000.0001) // ======================================================
(PID.TID 0000.0001) // o Tile number: 000001
(PID.TID 0000.0001) //         No. X exchanges =              0
(PID.TID 0000.0001) //            Max. X spins =              0
(PID.TID 0000.0001) //            Min. X spins =     1000000000
(PID.TID 0000.0001) //          Total. X spins =              0
(PID.TID 0000.0001) //            Avg. X spins =       0.00E+00
(PID.TID 0000.0001) //         No. Y exchanges =              0
(PID.TID 0000.0001) //            Max. Y spins =              0
(PID.TID 0000.0001) //            Min. Y spins =     1000000000
(PID.TID 0000.0001) //          Total. Y spins =              0
(PID.TID 0000.0001) //            Avg. Y spins =       0.00E+00
(PID.TID 0000.0001) // o Thread number: 000001
(PID.TID 0000.0001) //            No. barriers =          21666
(PID.TID 0000.0001) //      Max. barrier spins =              1
(PID.TID 0000.0001) //      Min. barrier spins =              1
(PID.TID 0000.0001) //     Total barrier spins =          21666
(PID.TID 0000.0001) //      Avg. barrier spins =       1.00E+00
PROGRAM MAIN: Execution ended Normally
