(PID.TID 0000.0001) 
(PID.TID 0000.0001) // ======================================================
(PID.TID 0000.0001) //                      MITgcm UV
(PID.TID 0000.0001) //                      =========
(PID.TID 0000.0001) // ======================================================
(PID.TID 0000.0001) // execution environment starting up...
(PID.TID 0000.0001) 
(PID.TID 0000.0001) // Build user:        jahn
(PID.TID 0000.0001) // Build host:        node199
(PID.TID 0000.0001) // Build date:        Tue May  6 14:33:40 EDT 2014
(PID.TID 0000.0001) 
(PID.TID 0000.0001) // =======================================================
(PID.TID 0000.0001) // Execution Environment parameter file "eedata"
(PID.TID 0000.0001) // =======================================================
(PID.TID 0000.0001) ># Example "eedata" file
(PID.TID 0000.0001) ># Lines beginning "#" are comments
(PID.TID 0000.0001) ># nTx - No. threads per process in X
(PID.TID 0000.0001) ># nTy - No. threads per process in Y
(PID.TID 0000.0001) > &EEPARMS
(PID.TID 0000.0001) > nTx=1,
(PID.TID 0000.0001) > nTy=1,
(PID.TID 0000.0001) > printMapIncludesZeros = .TRUE.
(PID.TID 0000.0001) > /
(PID.TID 0000.0001) ># Note: Some systems use & as the
(PID.TID 0000.0001) ># namelist terminator. Other systems
(PID.TID 0000.0001) ># use a / character (as shown here).
(PID.TID 0000.0001) 
(PID.TID 0000.0001) // =======================================================
(PID.TID 0000.0001) // Computational Grid Specification ( see files "SIZE.h" )
(PID.TID 0000.0001) //                                  ( and "eedata"       )
(PID.TID 0000.0001) // =======================================================
(PID.TID 0000.0001)      nPx =    1 ; /* No. processes in X */
(PID.TID 0000.0001)      nPy =    1 ; /* No. processes in Y */
(PID.TID 0000.0001)      nSx =    2 ; /* No. tiles in X per process */
(PID.TID 0000.0001)      nSy =    2 ; /* No. tiles in Y per process */
(PID.TID 0000.0001)      sNx =   38 ; /* Tile size in X */
(PID.TID 0000.0001)      sNy =   36 ; /* Tile size in Y */
(PID.TID 0000.0001)      OLx =    4 ; /* Tile overlap distance in X */
(PID.TID 0000.0001)      OLy =    4 ; /* Tile overlap distance in Y */
(PID.TID 0000.0001)      nTx =    1 ; /* No. threads in X per process */
(PID.TID 0000.0001)      nTy =    1 ; /* No. threads in Y per process */
(PID.TID 0000.0001)       Nr =   24 ; /* No. levels in the vertical   */
(PID.TID 0000.0001)       Nx =   76 ; /* Total domain size in X ( = nPx*nSx*sNx ) */
(PID.TID 0000.0001)       Ny =   72 ; /* Total domain size in Y ( = nPy*nSy*sNy ) */
(PID.TID 0000.0001)   nTiles =    4 ; /* Total no. tiles per process ( = nSx*nSy ) */
(PID.TID 0000.0001)   nProcs =    1 ; /* Total no. processes ( = nPx*nPy ) */
(PID.TID 0000.0001) nThreads =    1 ; /* Total no. threads per process ( = nTx*nTy ) */
(PID.TID 0000.0001) usingMPI =    F ; /* Flag used to control whether MPI is in use */
(PID.TID 0000.0001)                   /*  note: To execute a program with MPI calls */
(PID.TID 0000.0001)                   /*  it must be launched appropriately e.g     */
(PID.TID 0000.0001)                   /*  "mpirun -np 64 ......"                    */
(PID.TID 0000.0001) useCoupler=    F ;/* Flag used to control communications with   */
(PID.TID 0000.0001)                   /*  other model components, through a coupler */
(PID.TID 0000.0001) debugMode =    F ; /* print debug msg. (sequence of S/R calls)  */
(PID.TID 0000.0001) printMapIncludesZeros=    T ; /* print zeros in Std.Output maps */
(PID.TID 0000.0001) maxLengthPrt1D=   65 /* maxLength of 1D array printed to StdOut */
(PID.TID 0000.0001) 
(PID.TID 0000.0001) // ======================================================
(PID.TID 0000.0001) // Mapping of tiles to threads
(PID.TID 0000.0001) // ======================================================
(PID.TID 0000.0001) // -o- Thread   1, tiles (   1:   2,   1:   2)
(PID.TID 0000.0001) 
(PID.TID 0000.0001) // ======================================================
(PID.TID 0000.0001) // Tile <-> Tile connectvity table
(PID.TID 0000.0001) // ======================================================
(PID.TID 0000.0001) // Tile number: 000001 (process no. = 000000)
(PID.TID 0000.0001) //        WEST: Tile = 000002, Process = 000000, Comm = put
(PID.TID 0000.0001) //                bi = 000002, bj = 000001
(PID.TID 0000.0001) //        EAST: Tile = 000002, Process = 000000, Comm = put
(PID.TID 0000.0001) //                bi = 000002, bj = 000001
(PID.TID 0000.0001) //       SOUTH: Tile = 000003, Process = 000000, Comm = put
(PID.TID 0000.0001) //                bi = 000001, bj = 000002
(PID.TID 0000.0001) //       NORTH: Tile = 000003, Process = 000000, Comm = put
(PID.TID 0000.0001) //                bi = 000001, bj = 000002
(PID.TID 0000.0001) // Tile number: 000002 (process no. = 000000)
(PID.TID 0000.0001) //        WEST: Tile = 000001, Process = 000000, Comm = put
(PID.TID 0000.0001) //                bi = 000001, bj = 000001
(PID.TID 0000.0001) //        EAST: Tile = 000001, Process = 000000, Comm = put
(PID.TID 0000.0001) //                bi = 000001, bj = 000001
(PID.TID 0000.0001) //       SOUTH: Tile = 000004, Process = 000000, Comm = put
(PID.TID 0000.0001) //                bi = 000002, bj = 000002
(PID.TID 0000.0001) //       NORTH: Tile = 000004, Process = 000000, Comm = put
(PID.TID 0000.0001) //                bi = 000002, bj = 000002
(PID.TID 0000.0001) // Tile number: 000003 (process no. = 000000)
(PID.TID 0000.0001) //        WEST: Tile = 000004, Process = 000000, Comm = put
(PID.TID 0000.0001) //                bi = 000002, bj = 000002
(PID.TID 0000.0001) //        EAST: Tile = 000004, Process = 000000, Comm = put
(PID.TID 0000.0001) //                bi = 000002, bj = 000002
(PID.TID 0000.0001) //       SOUTH: Tile = 000001, Process = 000000, Comm = put
(PID.TID 0000.0001) //                bi = 000001, bj = 000001
(PID.TID 0000.0001) //       NORTH: Tile = 000001, Process = 000000, Comm = put
(PID.TID 0000.0001) //                bi = 000001, bj = 000001
(PID.TID 0000.0001) // Tile number: 000004 (process no. = 000000)
(PID.TID 0000.0001) //        WEST: Tile = 000003, Process = 000000, Comm = put
(PID.TID 0000.0001) //                bi = 000001, bj = 000002
(PID.TID 0000.0001) //        EAST: Tile = 000003, Process = 000000, Comm = put
(PID.TID 0000.0001) //                bi = 000001, bj = 000002
(PID.TID 0000.0001) //       SOUTH: Tile = 000002, Process = 000000, Comm = put
(PID.TID 0000.0001) //                bi = 000002, bj = 000001
(PID.TID 0000.0001) //       NORTH: Tile = 000002, Process = 000000, Comm = put
(PID.TID 0000.0001) //                bi = 000002, bj = 000001
(PID.TID 0000.0001) 
(PID.TID 0000.0001)  INI_PARMS: opening model parameter file "data"
(PID.TID 0000.0001)  OPEN_COPY_DATA_FILE: opening file data
(PID.TID 0000.0001) // =======================================================
(PID.TID 0000.0001) // Parameter file "data"
(PID.TID 0000.0001) // =======================================================
(PID.TID 0000.0001) ># ====================
(PID.TID 0000.0001) ># | Model parameters |
(PID.TID 0000.0001) ># ====================
(PID.TID 0000.0001) >#
(PID.TID 0000.0001) ># Continuous equation parameters
(PID.TID 0000.0001) > &PARM01
(PID.TID 0000.0001) > tRef               = 3*23.,3*22.,21.,2*20.,19.,2*18.,17.,2*16.,15.,14.,13.,
(PID.TID 0000.0001) >                      12.,11.,2*9.,8.,7.
(PID.TID 0000.0001) > sRef               = 24*34.5,
(PID.TID 0000.0001) > viscAr= 6.0826e-04,
(PID.TID 0000.0001) > no_slip_sides=.FALSE.,
(PID.TID 0000.0001) > no_slip_bottom=.TRUE.,
(PID.TID 0000.0001) > diffKrT=1.e-6,
(PID.TID 0000.0001) > diffKrS=1.e-6,
(PID.TID 0000.0001) > rhonil=1027.5,
(PID.TID 0000.0001) > rhoConstFresh=999.8,
(PID.TID 0000.0001) > eosType='JMD95Z',
(PID.TID 0000.0001) > hFacMinDr=50.,
(PID.TID 0000.0001) > hFacMin=0.3,
(PID.TID 0000.0001) > hFacInf=0.1,
(PID.TID 0000.0001) > hFacSup=5.,
(PID.TID 0000.0001) ># select_rStar=2,
(PID.TID 0000.0001) ># nonlinFreeSurf=4,
(PID.TID 0000.0001) > implicitDiffusion=.TRUE.,
(PID.TID 0000.0001) > implicitViscosity=.TRUE.,
(PID.TID 0000.0001) > viscC4Leith=1.5,
(PID.TID 0000.0001) > viscC4Leithd=1.5,
(PID.TID 0000.0001) > viscA4GridMax=0.5,
(PID.TID 0000.0001) > useAreaViscLength=.TRUE.,
(PID.TID 0000.0001) > sideDragFactor=0.,
(PID.TID 0000.0001) > highOrderVorticity  = .TRUE.,
(PID.TID 0000.0001) > bottomDragQuadratic = 0.002,
(PID.TID 0000.0001) > tempAdvScheme=7,
(PID.TID 0000.0001) > saltAdvScheme=7,
(PID.TID 0000.0001) > StaggerTimeStep=.TRUE.,
(PID.TID 0000.0001) > multiDimAdvection=.TRUE.,
(PID.TID 0000.0001) > vectorInvariantMomentum=.TRUE.,
(PID.TID 0000.0001) > implicitFreeSurface=.TRUE.,
(PID.TID 0000.0001) > exactConserv=.TRUE.,
(PID.TID 0000.0001) >#debuglevel=-1,
(PID.TID 0000.0001) > convertFW2Salt=-1
(PID.TID 0000.0001) ># useRealFreshWaterFlux=.TRUE.,
(PID.TID 0000.0001) > useSingleCPUio=.TRUE.,
(PID.TID 0000.0001) > globalFiles=.TRUE.,
(PID.TID 0000.0001) > writeBinaryPrec=64,
(PID.TID 0000.0001) > /
(PID.TID 0000.0001) >
(PID.TID 0000.0001) ># Elliptic solver parameters
(PID.TID 0000.0001) > &PARM02
(PID.TID 0000.0001) > cg2dMaxIters=100,
(PID.TID 0000.0001) > cg2dTargetResidual=1.E-5,
(PID.TID 0000.0001) > /
(PID.TID 0000.0001) >
(PID.TID 0000.0001) ># Time stepping parameters
(PID.TID 0000.0001) > &PARM03
(PID.TID 0000.0001) ># 19930701
(PID.TID 0000.0001) >#niter0=0000039384,
(PID.TID 0000.0001) >#nTimeSteps=73,
(PID.TID 0000.0001) >#nTimeSteps=288,
(PID.TID 0000.0001) ># 19990301
(PID.TID 0000.0001) >#starttime=226022400.,
(PID.TID 0000.0001) >#endtime=226065600.,
(PID.TID 0000.0001) ># 19990301 1200
(PID.TID 0000.0001) > starttime=226065600.,
(PID.TID 0000.0001) > nTimeSteps=4,
(PID.TID 0000.0001) ># 19990301 1200
(PID.TID 0000.0001) >#starttime=36720000.,
(PID.TID 0000.0001) >#starttime=63158400.,
(PID.TID 0000.0001) >#starttime=94694400.,
(PID.TID 0000.0001) >#starttime=126230400.,
(PID.TID 0000.0001) >#starttime=157852800.,
(PID.TID 0000.0001) >#starttime=189388800.,
(PID.TID 0000.0001) >#starttime=220924800.,
(PID.TID 0000.0001) >#starttime=252460800.,
(PID.TID 0000.0001) >#starttime=284083200.,
(PID.TID 0000.0001) >#starttime=315619200.,
(PID.TID 0000.0001) ># 19930201
(PID.TID 0000.0001) >#endtime=34300800.,
(PID.TID 0000.0001) ># 19930301
(PID.TID 0000.0001) >#endtime=36720000.,
(PID.TID 0000.0001) ># 19930401
(PID.TID 0000.0001) >#endtime=39398400.,
(PID.TID 0000.0001) ># 19930501
(PID.TID 0000.0001) >#endtime=41990400.,
(PID.TID 0000.0001) ># 19930601
(PID.TID 0000.0001) >#endtime=44668800.,
(PID.TID 0000.0001) ># 19930701
(PID.TID 0000.0001) >#endtime=47260800.,
(PID.TID 0000.0001) ># 19930801
(PID.TID 0000.0001) >#endtime=49939200.,
(PID.TID 0000.0001) ># 19940101
(PID.TID 0000.0001) >#endtime=63158400.,
(PID.TID 0000.0001) ># 19950101
(PID.TID 0000.0001) >#endtime=94694400.,
(PID.TID 0000.0001) ># 19960101
(PID.TID 0000.0001) >#endtime=126230400.,
(PID.TID 0000.0001) ># 19970101
(PID.TID 0000.0001) >#endtime=157852800.,
(PID.TID 0000.0001) ># 19980101
(PID.TID 0000.0001) >#endtime=189388800.,
(PID.TID 0000.0001) ># 19990101
(PID.TID 0000.0001) >#endtime=220924800.,
(PID.TID 0000.0001) ># 19990301
(PID.TID 0000.0001) >#endtime=226022400.,
(PID.TID 0000.0001) ># 19990301 1200
(PID.TID 0000.0001) >#endtime=226065600.,
(PID.TID 0000.0001) ># 20000101
(PID.TID 0000.0001) >#endtime=252460800.,
(PID.TID 0000.0001) ># 20010101
(PID.TID 0000.0001) >#endtime=284083200.,
(PID.TID 0000.0001) ># 20020101
(PID.TID 0000.0001) >#endtime=315619200.,
(PID.TID 0000.0001) ># 20020701
(PID.TID 0000.0001) >#endtime=331257600.,
(PID.TID 0000.0001) >#endtime=347155200.,
(PID.TID 0000.0001) > abEps=0.1,
(PID.TID 0000.0001) > deltaT=1200,
(PID.TID 0000.0001) > cAdjFreq=0.,
(PID.TID 0000.0001) > pickupStrictlyMatch=.FALSE.,
(PID.TID 0000.0001) >#pChkptFreq=31536000.,
(PID.TID 0000.0001) > pChkptFreq=2678400.,
(PID.TID 0000.0001) > chkptFreq=2592000.,
(PID.TID 0000.0001) >#now in data.exf:
(PID.TID 0000.0001) >#tauSaltClimRelax = 8722203.,
(PID.TID 0000.0001) > monitorFreq=1200.,
(PID.TID 0000.0001) >#diagFreq=1200.,
(PID.TID 0000.0001) > forcing_In_AB = .FALSE.,
(PID.TID 0000.0001) > dumpFreq= 1200.,
(PID.TID 0000.0001) > dumpInitAndLast=.TRUE.,
(PID.TID 0000.0001) > /
(PID.TID 0000.0001) >
(PID.TID 0000.0001) ># Gridding parameters
(PID.TID 0000.0001) > &PARM04
(PID.TID 0000.0001) > usingCartesianGrid=.FALSE.,
(PID.TID 0000.0001) > usingSphericalPolarGrid=.FALSE.,
(PID.TID 0000.0001) > usingCurvilinearGrid=.TRUE.,
(PID.TID 0000.0001) > delR   = 10.00, 10.00, 10.00, 10.00, 10.00, 10.00, 10.00, 10.01,
(PID.TID 0000.0001) > 10.03, 10.11, 10.32, 10.80, 11.76, 13.42, 16.04 , 19.82, 24.85,
(PID.TID 0000.0001) > 31.10, 38.42, 46.50, 55.00, 63.50, 71.58, 78.90
(PID.TID 0000.0001) > /
(PID.TID 0000.0001) >
(PID.TID 0000.0001) ># Input datasets
(PID.TID 0000.0001) > &PARM05
(PID.TID 0000.0001) > bathyFile      ='ETOPO2_76x72_baltic_corr',
(PID.TID 0000.0001) > hydrogThetaFile='',
(PID.TID 0000.0001) > hydrogSaltFile ='',
(PID.TID 0000.0001) > /
(PID.TID 0000.0001) 
(PID.TID 0000.0001)  INI_PARMS ; starts to read PARM01
(PID.TID 0000.0001)  INI_PARMS ; read PARM01 : OK
(PID.TID 0000.0001)  INI_PARMS ; starts to read PARM02
(PID.TID 0000.0001)  INI_PARMS ; read PARM02 : OK
(PID.TID 0000.0001)  INI_PARMS ; starts to read PARM03
(PID.TID 0000.0001)  INI_PARMS ; read PARM03 : OK
(PID.TID 0000.0001)  INI_PARMS ; starts to read PARM04
(PID.TID 0000.0001)  INI_PARMS ; read PARM04 : OK
(PID.TID 0000.0001)  INI_PARMS ; starts to read PARM05
(PID.TID 0000.0001)  INI_PARMS ; read PARM05 : OK
(PID.TID 0000.0001)  INI_PARMS: finished reading file "data"
(PID.TID 0000.0001)  PACKAGES_BOOT: opening data.pkg
(PID.TID 0000.0001)  OPEN_COPY_DATA_FILE: opening file data.pkg
(PID.TID 0000.0001) // =======================================================
(PID.TID 0000.0001) // Parameter file "data.pkg"
(PID.TID 0000.0001) // =======================================================
(PID.TID 0000.0001) ># Packages
(PID.TID 0000.0001) > &PACKAGES
(PID.TID 0000.0001) > useEXF         = .TRUE.,
(PID.TID 0000.0001) > useSEAICE      = .TRUE.,
(PID.TID 0000.0001) > useKPP         = .TRUE.,
(PID.TID 0000.0001) > useDiagnostics = .TRUE.,
(PID.TID 0000.0001) > useOBCS        = .TRUE.,
(PID.TID 0000.0001) > usePTRACERS    = .TRUE.,
(PID.TID 0000.0001) > useGCHEM       = .TRUE.,
(PID.TID 0000.0001) > useMNC         = .TRUE.,
(PID.TID 0000.0001) > /
(PID.TID 0000.0001) 
(PID.TID 0000.0001)  PACKAGES_BOOT: finished reading data.pkg
(PID.TID 0000.0001)  PACKAGES_BOOT: On/Off package Summary
 --------  pkgs with a standard "usePKG" On/Off switch in "data.pkg":  --------
 pkg/obcs                 compiled   and   used ( useOBCS                  = T )
 pkg/kpp                  compiled   and   used ( useKPP                   = T )
 pkg/cal                  compiled   and   used ( useCAL                   = T )
 pkg/exf                  compiled   and   used ( useEXF                   = T )
 pkg/ptracers             compiled   and   used ( usePTRACERS              = T )
 pkg/gchem                compiled   and   used ( useGCHEM                 = T )
 pkg/seaice               compiled   and   used ( useSEAICE                = T )
 pkg/diagnostics          compiled   and   used ( useDiagnostics           = T )
 pkg/mnc                  compiled   and   used ( useMNC                   = T )
 -------- pkgs without standard "usePKG" On/Off switch in "data.pkg":  --------
 pkg/generic_advdiff      compiled   and   used ( useGAD                   = T )
 pkg/mom_common           compiled   and   used ( momStepping              = T )
 pkg/mom_vecinv           compiled   and   used ( +vectorInvariantMomentum = T )
 pkg/monitor              compiled   and   used ( monitorFreq > 0.         = T )
 pkg/debug                compiled but not used ( debugMode                = F )
 pkg/rw                   compiled   and   used
 pkg/mdsio                compiled   and   used
(PID.TID 0000.0001)  PACKAGES_BOOT: End of package Summary
(PID.TID 0000.0001) 
(PID.TID 0000.0001)  MNC_READPARMS: opening file 'data.mnc'
(PID.TID 0000.0001)  OPEN_COPY_DATA_FILE: opening file data.mnc
(PID.TID 0000.0001) // =======================================================
(PID.TID 0000.0001) // Parameter file "data.mnc"
(PID.TID 0000.0001) // =======================================================
(PID.TID 0000.0001) ># Example "data.mnc" file
(PID.TID 0000.0001) ># Lines beginning "#" are comments
(PID.TID 0000.0001) > &MNC_01
(PID.TID 0000.0001) ># mnc_echo_gvtypes=.FALSE.,
(PID.TID 0000.0001) ># mnc_use_indir=.FALSE.,
(PID.TID 0000.0001) ># mnc_use_outdir=.TRUE.,
(PID.TID 0000.0001) >#mnc_use_name_ni0=.TRUE.,
(PID.TID 0000.0001) > mnc_outdir_str='mnc_out_',
(PID.TID 0000.0001) >#mnc_outdir_date=.TRUE.,
(PID.TID 0000.0001) > monitor_mnc=.FALSE.,
(PID.TID 0000.0001) > snapshot_mnc=.TRUE.,
(PID.TID 0000.0001) > timeave_mnc=.TRUE.,
(PID.TID 0000.0001) > pickup_write_mnc=.FALSE.,
(PID.TID 0000.0001) > pickup_read_mnc=.FALSE.,
(PID.TID 0000.0001) > /
(PID.TID 0000.0001) ># Note: Some systems use & as the
(PID.TID 0000.0001) ># namelist terminator. Other systems
(PID.TID 0000.0001) ># use a / character (as shown here).
(PID.TID 0000.0001) 
(PID.TID 0000.0001)  MNC_READPARMS: finished reading data.mnc
(PID.TID 0000.0001) CAL_READPARMS: opening data.cal
(PID.TID 0000.0001)  OPEN_COPY_DATA_FILE: opening file data.cal
(PID.TID 0000.0001) // =======================================================
(PID.TID 0000.0001) // Parameter file "data.cal"
(PID.TID 0000.0001) // =======================================================
(PID.TID 0000.0001) >#
(PID.TID 0000.0001) ># *******************
(PID.TID 0000.0001) ># Calendar Parameters
(PID.TID 0000.0001) ># *******************
(PID.TID 0000.0001) > &CAL_NML
(PID.TID 0000.0001) > TheCalendar='gregorian',
(PID.TID 0000.0001) > startDate_1=19920101,
(PID.TID 0000.0001) > startDate_2=000000,
(PID.TID 0000.0001) > calendarDumps = .TRUE.
(PID.TID 0000.0001) > /
(PID.TID 0000.0001) 
(PID.TID 0000.0001) CAL_READPARMS: finished reading data.cal
(PID.TID 0000.0001) EXF_READPARMS: opening data.exf
(PID.TID 0000.0001)  OPEN_COPY_DATA_FILE: opening file data.exf
(PID.TID 0000.0001) // =======================================================
(PID.TID 0000.0001) // Parameter file "data.exf"
(PID.TID 0000.0001) // =======================================================
(PID.TID 0000.0001) ># *********************
(PID.TID 0000.0001) ># External Forcing Data
(PID.TID 0000.0001) ># *********************
(PID.TID 0000.0001) >#
(PID.TID 0000.0001) > &EXF_NML_01
(PID.TID 0000.0001) > exf_albedo        = 0.15,
(PID.TID 0000.0001) > exf_iprec         = 32,
(PID.TID 0000.0001) > exf_yftype        = 'RL',
(PID.TID 0000.0001) > useExfYearlyFields= .TRUE.,
(PID.TID 0000.0001) > twoDigitYear      = .TRUE.,
(PID.TID 0000.0001) > useExfCheckRange  = .FALSE.,
(PID.TID 0000.0001) > /
(PID.TID 0000.0001) >#
(PID.TID 0000.0001) > &EXF_NML_02
(PID.TID 0000.0001) > atempfile         = 'RG_tmp2m',
(PID.TID 0000.0001) > aqhfile           = 'RG_spfh2m',
(PID.TID 0000.0001) > precipfile        = 'RG_rain',
(PID.TID 0000.0001) > runofffile        = 'runoff-360x180x12.bin',
(PID.TID 0000.0001) > uwindfile         = 'RG_u10m',
(PID.TID 0000.0001) > vwindfile         = 'RG_v10m',
(PID.TID 0000.0001) > swdownfile        = 'RG_dsw',
(PID.TID 0000.0001) > lwdownfile        = 'RG_dlw',
(PID.TID 0000.0001) > climsssfile       = 'LEV01_SSS_360x180x12.bin',
(PID.TID 0000.0001) >#
(PID.TID 0000.0001) > atempstartdate1   = 19990301,
(PID.TID 0000.0001) > atempstartdate2   = 120000,
(PID.TID 0000.0001) > atempperiod       = 21600.0,
(PID.TID 0000.0001) >#
(PID.TID 0000.0001) > aqhstartdate1     = 19990301,
(PID.TID 0000.0001) > aqhstartdate2     = 120000,
(PID.TID 0000.0001) > aqhperiod         = 21600.0,
(PID.TID 0000.0001) >#
(PID.TID 0000.0001) > precipstartdate1  = 19990301,
(PID.TID 0000.0001) > precipstartdate2  = 120000,
(PID.TID 0000.0001) > precipperiod      = 21600.0,
(PID.TID 0000.0001) >#
(PID.TID 0000.0001) > runoffperiod      = -12.,
(PID.TID 0000.0001) >#
(PID.TID 0000.0001) > uwindstartdate1   = 19990301,
(PID.TID 0000.0001) > uwindstartdate2   = 120000,
(PID.TID 0000.0001) > uwindperiod       = 21600.0,
(PID.TID 0000.0001) >#
(PID.TID 0000.0001) > vwindstartdate1   = 19990301,
(PID.TID 0000.0001) > vwindstartdate2   = 120000,
(PID.TID 0000.0001) > vwindperiod       = 21600.0,
(PID.TID 0000.0001) >#
(PID.TID 0000.0001) > swdownstartdate1  = 19990301,
(PID.TID 0000.0001) > swdownstartdate2  = 090000,
(PID.TID 0000.0001) > swdownperiod      = 21600.0,
(PID.TID 0000.0001) >#
(PID.TID 0000.0001) > lwdownstartdate1  = 19990301,
(PID.TID 0000.0001) > lwdownstartdate2  = 090000,
(PID.TID 0000.0001) > lwdownperiod      = 21600.0,
(PID.TID 0000.0001) >#
(PID.TID 0000.0001) > climsssperiod     = -12.,
(PID.TID 0000.0001) > climsssTauRelax   = 8722203.,
(PID.TID 0000.0001) > /
(PID.TID 0000.0001) >#
(PID.TID 0000.0001) > &EXF_NML_03
(PID.TID 0000.0001) > exf_offset_atemp  = 273.3971,
(PID.TID 0000.0001) > exf_inscal_runoff = 3.1710e-08,
(PID.TID 0000.0001) > /
(PID.TID 0000.0001) >#
(PID.TID 0000.0001) > &EXF_NML_04
(PID.TID 0000.0001) > atemp_lon0        = 0.00D0,
(PID.TID 0000.0001) > atemp_lon_inc     = 1.875D0,
(PID.TID 0000.0001) > atemp_lat0        = -88.5420D0,
(PID.TID 0000.0001) > atemp_lat_inc     = 1.8888, 1.9000, 1.9024, 1.9034, 1.9039, 1.9042,
(PID.TID 0000.0001) >     1.9042, 1.9044, 1.9045, 1.9045, 1.9046, 1.9046, 1.9046, 1.9046,
(PID.TID 0000.0001) >     1.9047, 1.9046, 1.9047, 1.9047, 1.9047, 1.9047, 1.9047, 1.9047,
(PID.TID 0000.0001) >     1.9047, 1.9047, 1.9047, 1.9047, 1.9048, 1.9047, 1.9047, 1.9047,
(PID.TID 0000.0001) >     1.9047, 1.9048, 1.9047, 1.9047, 1.9048, 1.9047, 1.9047, 1.9048,
(PID.TID 0000.0001) >     1.9047, 1.9047, 1.9048, 1.9047, 1.9047, 1.9048, 1.9047, 1.9047,
(PID.TID 0000.0001) >     1.9048, 1.9047, 1.9047, 1.9048, 1.9047, 1.9047, 1.9048, 1.9047,
(PID.TID 0000.0001) >     1.9047, 1.9048, 1.9047, 1.9047, 1.9048, 1.9047, 1.9047, 1.9048,
(PID.TID 0000.0001) >     1.9047, 1.9047, 1.9047, 1.9047, 1.9048, 1.9047, 1.9047, 1.9047,
(PID.TID 0000.0001) >     1.9047, 1.9047, 1.9047, 1.9047, 1.9047, 1.9047, 1.9047, 1.9046,
(PID.TID 0000.0001) >     1.9047, 1.9046, 1.9046, 1.9046, 1.9046, 1.9045, 1.9045, 1.9044,
(PID.TID 0000.0001) >     1.9042, 1.9042, 1.9039, 1.9034, 1.9024, 1.9000, 1.8888, 1.8888,
(PID.TID 0000.0001) > atemp_nlon        = 192,
(PID.TID 0000.0001) > atemp_nlat        = 94,
(PID.TID 0000.0001) >#
(PID.TID 0000.0001) > aqh_lon0          = 0.00D0,
(PID.TID 0000.0001) > aqh_lon_inc       = 1.875D0,
(PID.TID 0000.0001) > aqh_lat0          = -88.5420D0,
(PID.TID 0000.0001) > aqh_lat_inc       = 1.8888, 1.9000, 1.9024, 1.9034, 1.9039, 1.9042,
(PID.TID 0000.0001) >     1.9042, 1.9044, 1.9045, 1.9045, 1.9046, 1.9046, 1.9046, 1.9046,
(PID.TID 0000.0001) >     1.9047, 1.9046, 1.9047, 1.9047, 1.9047, 1.9047, 1.9047, 1.9047,
(PID.TID 0000.0001) >     1.9047, 1.9047, 1.9047, 1.9047, 1.9048, 1.9047, 1.9047, 1.9047,
(PID.TID 0000.0001) >     1.9047, 1.9048, 1.9047, 1.9047, 1.9048, 1.9047, 1.9047, 1.9048,
(PID.TID 0000.0001) >     1.9047, 1.9047, 1.9048, 1.9047, 1.9047, 1.9048, 1.9047, 1.9047,
(PID.TID 0000.0001) >     1.9048, 1.9047, 1.9047, 1.9048, 1.9047, 1.9047, 1.9048, 1.9047,
(PID.TID 0000.0001) >     1.9047, 1.9048, 1.9047, 1.9047, 1.9048, 1.9047, 1.9047, 1.9048,
(PID.TID 0000.0001) >     1.9047, 1.9047, 1.9047, 1.9047, 1.9048, 1.9047, 1.9047, 1.9047,
(PID.TID 0000.0001) >     1.9047, 1.9047, 1.9047, 1.9047, 1.9047, 1.9047, 1.9047, 1.9046,
(PID.TID 0000.0001) >     1.9047, 1.9046, 1.9046, 1.9046, 1.9046, 1.9045, 1.9045, 1.9044,
(PID.TID 0000.0001) >     1.9042, 1.9042, 1.9039, 1.9034, 1.9024, 1.9000, 1.8888, 1.8888,
(PID.TID 0000.0001) > aqh_nlon          = 192,
(PID.TID 0000.0001) > aqh_nlat          = 94,
(PID.TID 0000.0001) >#
(PID.TID 0000.0001) > precip_lon0       = 0.00D0,
(PID.TID 0000.0001) > precip_lon_inc    = 1.875D0,
(PID.TID 0000.0001) > precip_lat0       = -88.5420D0,
(PID.TID 0000.0001) > precip_lat_inc    = 1.8888, 1.9000, 1.9024, 1.9034, 1.9039, 1.9042,
(PID.TID 0000.0001) >     1.9042, 1.9044, 1.9045, 1.9045, 1.9046, 1.9046, 1.9046, 1.9046,
(PID.TID 0000.0001) >     1.9047, 1.9046, 1.9047, 1.9047, 1.9047, 1.9047, 1.9047, 1.9047,
(PID.TID 0000.0001) >     1.9047, 1.9047, 1.9047, 1.9047, 1.9048, 1.9047, 1.9047, 1.9047,
(PID.TID 0000.0001) >     1.9047, 1.9048, 1.9047, 1.9047, 1.9048, 1.9047, 1.9047, 1.9048,
(PID.TID 0000.0001) >     1.9047, 1.9047, 1.9048, 1.9047, 1.9047, 1.9048, 1.9047, 1.9047,
(PID.TID 0000.0001) >     1.9048, 1.9047, 1.9047, 1.9048, 1.9047, 1.9047, 1.9048, 1.9047,
(PID.TID 0000.0001) >     1.9047, 1.9048, 1.9047, 1.9047, 1.9048, 1.9047, 1.9047, 1.9048,
(PID.TID 0000.0001) >     1.9047, 1.9047, 1.9047, 1.9047, 1.9048, 1.9047, 1.9047, 1.9047,
(PID.TID 0000.0001) >     1.9047, 1.9047, 1.9047, 1.9047, 1.9047, 1.9047, 1.9047, 1.9046,
(PID.TID 0000.0001) >     1.9047, 1.9046, 1.9046, 1.9046, 1.9046, 1.9045, 1.9045, 1.9044,
(PID.TID 0000.0001) >     1.9042, 1.9042, 1.9039, 1.9034, 1.9024, 1.9000, 1.8888, 1.8888,
(PID.TID 0000.0001) > precip_nlon       = 192,
(PID.TID 0000.0001) > precip_nlat       = 94,
(PID.TID 0000.0001) >#
(PID.TID 0000.0001) > runoff_lon0       = 0.50D0,
(PID.TID 0000.0001) > runoff_lon_inc    = 1.0D0,
(PID.TID 0000.0001) > runoff_lat0       = -89.5D0,
(PID.TID 0000.0001) > runoff_lat_inc    = 179*1.,
(PID.TID 0000.0001) > runoff_nlon       = 360,
(PID.TID 0000.0001) > runoff_nlat       = 180,
(PID.TID 0000.0001) >#
(PID.TID 0000.0001) > uwind_lon0        = 0.00D0,
(PID.TID 0000.0001) > uwind_lon_inc     = 1.875D0,
(PID.TID 0000.0001) > uwind_lat0        = -88.5420D0,
(PID.TID 0000.0001) > uwind_lat_inc     = 1.8888, 1.9000, 1.9024, 1.9034, 1.9039, 1.9042,
(PID.TID 0000.0001) >     1.9042, 1.9044, 1.9045, 1.9045, 1.9046, 1.9046, 1.9046, 1.9046,
(PID.TID 0000.0001) >     1.9047, 1.9046, 1.9047, 1.9047, 1.9047, 1.9047, 1.9047, 1.9047,
(PID.TID 0000.0001) >     1.9047, 1.9047, 1.9047, 1.9047, 1.9048, 1.9047, 1.9047, 1.9047,
(PID.TID 0000.0001) >     1.9047, 1.9048, 1.9047, 1.9047, 1.9048, 1.9047, 1.9047, 1.9048,
(PID.TID 0000.0001) >     1.9047, 1.9047, 1.9048, 1.9047, 1.9047, 1.9048, 1.9047, 1.9047,
(PID.TID 0000.0001) >     1.9048, 1.9047, 1.9047, 1.9048, 1.9047, 1.9047, 1.9048, 1.9047,
(PID.TID 0000.0001) >     1.9047, 1.9048, 1.9047, 1.9047, 1.9048, 1.9047, 1.9047, 1.9048,
(PID.TID 0000.0001) >     1.9047, 1.9047, 1.9047, 1.9047, 1.9048, 1.9047, 1.9047, 1.9047,
(PID.TID 0000.0001) >     1.9047, 1.9047, 1.9047, 1.9047, 1.9047, 1.9047, 1.9047, 1.9046,
(PID.TID 0000.0001) >     1.9047, 1.9046, 1.9046, 1.9046, 1.9046, 1.9045, 1.9045, 1.9044,
(PID.TID 0000.0001) >     1.9042, 1.9042, 1.9039, 1.9034, 1.9024, 1.9000, 1.8888, 1.8888,
(PID.TID 0000.0001) > uwind_nlon        = 192,
(PID.TID 0000.0001) > uwind_nlat        = 94,
(PID.TID 0000.0001) >#
(PID.TID 0000.0001) > vwind_lon0        = 0.00D0,
(PID.TID 0000.0001) > vwind_lon_inc     = 1.875D0,
(PID.TID 0000.0001) > vwind_lat0        = -88.5420D0,
(PID.TID 0000.0001) > vwind_lat_inc     = 1.8888, 1.9000, 1.9024, 1.9034, 1.9039, 1.9042,
(PID.TID 0000.0001) >     1.9042, 1.9044, 1.9045, 1.9045, 1.9046, 1.9046, 1.9046, 1.9046,
(PID.TID 0000.0001) >     1.9047, 1.9046, 1.9047, 1.9047, 1.9047, 1.9047, 1.9047, 1.9047,
(PID.TID 0000.0001) >     1.9047, 1.9047, 1.9047, 1.9047, 1.9048, 1.9047, 1.9047, 1.9047,
(PID.TID 0000.0001) >     1.9047, 1.9048, 1.9047, 1.9047, 1.9048, 1.9047, 1.9047, 1.9048,
(PID.TID 0000.0001) >     1.9047, 1.9047, 1.9048, 1.9047, 1.9047, 1.9048, 1.9047, 1.9047,
(PID.TID 0000.0001) >     1.9048, 1.9047, 1.9047, 1.9048, 1.9047, 1.9047, 1.9048, 1.9047,
(PID.TID 0000.0001) >     1.9047, 1.9048, 1.9047, 1.9047, 1.9048, 1.9047, 1.9047, 1.9048,
(PID.TID 0000.0001) >     1.9047, 1.9047, 1.9047, 1.9047, 1.9048, 1.9047, 1.9047, 1.9047,
(PID.TID 0000.0001) >     1.9047, 1.9047, 1.9047, 1.9047, 1.9047, 1.9047, 1.9047, 1.9046,
(PID.TID 0000.0001) >     1.9047, 1.9046, 1.9046, 1.9046, 1.9046, 1.9045, 1.9045, 1.9044,
(PID.TID 0000.0001) >     1.9042, 1.9042, 1.9039, 1.9034, 1.9024, 1.9000, 1.8888, 1.8888,
(PID.TID 0000.0001) > vwind_nlon        = 192,
(PID.TID 0000.0001) > vwind_nlat        = 94,
(PID.TID 0000.0001) >#
(PID.TID 0000.0001) > swdown_lon0       = 0.00D0,
(PID.TID 0000.0001) > swdown_lon_inc    = 1.875D0,
(PID.TID 0000.0001) > swdown_lat0       = -88.5420D0,
(PID.TID 0000.0001) > swdown_lat_inc    = 1.8888, 1.9000, 1.9024, 1.9034, 1.9039, 1.9042,
(PID.TID 0000.0001) >     1.9042, 1.9044, 1.9045, 1.9045, 1.9046, 1.9046, 1.9046, 1.9046,
(PID.TID 0000.0001) >     1.9047, 1.9046, 1.9047, 1.9047, 1.9047, 1.9047, 1.9047, 1.9047,
(PID.TID 0000.0001) >     1.9047, 1.9047, 1.9047, 1.9047, 1.9048, 1.9047, 1.9047, 1.9047,
(PID.TID 0000.0001) >     1.9047, 1.9048, 1.9047, 1.9047, 1.9048, 1.9047, 1.9047, 1.9048,
(PID.TID 0000.0001) >     1.9047, 1.9047, 1.9048, 1.9047, 1.9047, 1.9048, 1.9047, 1.9047,
(PID.TID 0000.0001) >     1.9048, 1.9047, 1.9047, 1.9048, 1.9047, 1.9047, 1.9048, 1.9047,
(PID.TID 0000.0001) >     1.9047, 1.9048, 1.9047, 1.9047, 1.9048, 1.9047, 1.9047, 1.9048,
(PID.TID 0000.0001) >     1.9047, 1.9047, 1.9047, 1.9047, 1.9048, 1.9047, 1.9047, 1.9047,
(PID.TID 0000.0001) >     1.9047, 1.9047, 1.9047, 1.9047, 1.9047, 1.9047, 1.9047, 1.9046,
(PID.TID 0000.0001) >     1.9047, 1.9046, 1.9046, 1.9046, 1.9046, 1.9045, 1.9045, 1.9044,
(PID.TID 0000.0001) >     1.9042, 1.9042, 1.9039, 1.9034, 1.9024, 1.9000, 1.8888, 1.8888,
(PID.TID 0000.0001) > swdown_nlon       = 192,
(PID.TID 0000.0001) > swdown_nlat       = 94,
(PID.TID 0000.0001) >#
(PID.TID 0000.0001) > lwdown_lon0       = 0.00D0,
(PID.TID 0000.0001) > lwdown_lon_inc    = 1.875D0,
(PID.TID 0000.0001) > lwdown_lat0       = -88.5420D0,
(PID.TID 0000.0001) > lwdown_lat_inc    = 1.8888, 1.9000, 1.9024, 1.9034, 1.9039, 1.9042,
(PID.TID 0000.0001) >     1.9042, 1.9044, 1.9045, 1.9045, 1.9046, 1.9046, 1.9046, 1.9046,
(PID.TID 0000.0001) >     1.9047, 1.9046, 1.9047, 1.9047, 1.9047, 1.9047, 1.9047, 1.9047,
(PID.TID 0000.0001) >     1.9047, 1.9047, 1.9047, 1.9047, 1.9048, 1.9047, 1.9047, 1.9047,
(PID.TID 0000.0001) >     1.9047, 1.9048, 1.9047, 1.9047, 1.9048, 1.9047, 1.9047, 1.9048,
(PID.TID 0000.0001) >     1.9047, 1.9047, 1.9048, 1.9047, 1.9047, 1.9048, 1.9047, 1.9047,
(PID.TID 0000.0001) >     1.9048, 1.9047, 1.9047, 1.9048, 1.9047, 1.9047, 1.9048, 1.9047,
(PID.TID 0000.0001) >     1.9047, 1.9048, 1.9047, 1.9047, 1.9048, 1.9047, 1.9047, 1.9048,
(PID.TID 0000.0001) >     1.9047, 1.9047, 1.9047, 1.9047, 1.9048, 1.9047, 1.9047, 1.9047,
(PID.TID 0000.0001) >     1.9047, 1.9047, 1.9047, 1.9047, 1.9047, 1.9047, 1.9047, 1.9046,
(PID.TID 0000.0001) >     1.9047, 1.9046, 1.9046, 1.9046, 1.9046, 1.9045, 1.9045, 1.9044,
(PID.TID 0000.0001) >     1.9042, 1.9042, 1.9039, 1.9034, 1.9024, 1.9000, 1.8888, 1.8888,
(PID.TID 0000.0001) > lwdown_nlon       = 192,
(PID.TID 0000.0001) > lwdown_nlat       = 94,
(PID.TID 0000.0001) >#
(PID.TID 0000.0001) > climsss_lon0      = 0.5,
(PID.TID 0000.0001) > climsss_lon_inc   = 1.,
(PID.TID 0000.0001) > climsss_lat0      = -89.5,
(PID.TID 0000.0001) > climsss_lat_inc   = 179*1.,
(PID.TID 0000.0001) > climsss_nlon      = 360,
(PID.TID 0000.0001) > climsss_nlat      = 180,
(PID.TID 0000.0001) > /
(PID.TID 0000.0001) >#
(PID.TID 0000.0001) > &EXF_NML_OBCS
(PID.TID 0000.0001) > obcsNstartdate1   = 19990219,
(PID.TID 0000.0001) > obcsNstartdate2   = 060000,
(PID.TID 0000.0001) > obcsNperiod       = 2635200.0,
(PID.TID 0000.0001) >#
(PID.TID 0000.0001) > obcsEstartdate1   = 19990219,
(PID.TID 0000.0001) > obcsEstartdate2   = 060000,
(PID.TID 0000.0001) > obcsEperiod       = 2635200.0,
(PID.TID 0000.0001) >#
(PID.TID 0000.0001) > obcsWstartdate1   = 19990219,
(PID.TID 0000.0001) > obcsWstartdate2   = 060000,
(PID.TID 0000.0001) > obcsWperiod       = 2635200.0,
(PID.TID 0000.0001) > /
(PID.TID 0000.0001) 
(PID.TID 0000.0001) EXF_READPARMS: reading EXF_NML_01
(PID.TID 0000.0001) EXF_READPARMS: reading EXF_NML_02
(PID.TID 0000.0001) EXF_READPARMS: reading EXF_NML_03
(PID.TID 0000.0001) EXF_READPARMS: reading EXF_NML_04
(PID.TID 0000.0001) EXF_READPARMS: reading EXF_NML_OBCS
(PID.TID 0000.0001) EXF_READPARMS: finished reading data.exf
(PID.TID 0000.0001)  OBCS_READPARMS: opening data.obcs
(PID.TID 0000.0001)  OPEN_COPY_DATA_FILE: opening file data.obcs
(PID.TID 0000.0001) // =======================================================
(PID.TID 0000.0001) // Parameter file "data.obcs"
(PID.TID 0000.0001) // =======================================================
(PID.TID 0000.0001) >#
(PID.TID 0000.0001) ># ***************
(PID.TID 0000.0001) ># Open boundaries
(PID.TID 0000.0001) ># ***************
(PID.TID 0000.0001) > &OBCS_PARM01
(PID.TID 0000.0001) > OB_Jnorth =   76*72,
(PID.TID 0000.0001) > OB_Iwest  =   72*1,
(PID.TID 0000.0001) >#
(PID.TID 0000.0001) >#OBCSfixTopo=.false.,
(PID.TID 0000.0001) >#
(PID.TID 0000.0001) > useOBCSprescribe=.TRUE.,
(PID.TID 0000.0001) >#
(PID.TID 0000.0001) > OBNsFile='OBNs_baltic_76x72.stable',
(PID.TID 0000.0001) > OBNtFile='OBNt_baltic_76x72.stable',
(PID.TID 0000.0001) > OBNuFile='OBNu_baltic_76x72.bin',
(PID.TID 0000.0001) > OBNvFile='OBNv_baltic_76x72.bin',
(PID.TID 0000.0001) > OBWsFile='OBWs_baltic_76x72.stable',
(PID.TID 0000.0001) > OBWtFile='OBWt_baltic_76x72.stable',
(PID.TID 0000.0001) > OBWuFile='OBWu_baltic_76x72.bin',
(PID.TID 0000.0001) > OBWvFile='OBWv_baltic_76x72.bin',
(PID.TID 0000.0001) >#
(PID.TID 0000.0001) > OBNptrFile(1)='OBN_DIC_76x72x24_baltic_128.bin',
(PID.TID 0000.0001) > OBWptrFile(1)='OBW_DIC_76x72x24_baltic_128.bin',
(PID.TID 0000.0001) > OBNptrFile(2)='OBN_NH4_76x72x24_baltic_128.bin',
(PID.TID 0000.0001) > OBWptrFile(2)='OBW_NH4_76x72x24_baltic_128.bin',
(PID.TID 0000.0001) > OBNptrFile(3)='OBN_NO2_76x72x24_baltic_128.bin',
(PID.TID 0000.0001) > OBWptrFile(3)='OBW_NO2_76x72x24_baltic_128.bin',
(PID.TID 0000.0001) > OBNptrFile(4)='OBN_NO3_76x72x24_baltic_128.bin',
(PID.TID 0000.0001) > OBWptrFile(4)='OBW_NO3_76x72x24_baltic_128.bin',
(PID.TID 0000.0001) > OBNptrFile(5)='OBN_PO4_76x72x24_baltic_128.bin',
(PID.TID 0000.0001) > OBWptrFile(5)='OBW_PO4_76x72x24_baltic_128.bin',
(PID.TID 0000.0001) > OBNptrFile(6)='OBN_SiO2_76x72x24_baltic_128.bin',
(PID.TID 0000.0001) > OBWptrFile(6)='OBW_SiO2_76x72x24_baltic_128.bin',
(PID.TID 0000.0001) > OBNptrFile(7)='OBN_FeT_76x72x24_baltic_128.bin',
(PID.TID 0000.0001) > OBWptrFile(7)='OBW_FeT_76x72x24_baltic_128.bin',
(PID.TID 0000.0001) > OBNptrFile(8)='OBN_zero_76x72x24_baltic_128.bin',
(PID.TID 0000.0001) > OBWptrFile(8)='OBW_zero_76x72x24_baltic_128.bin',
(PID.TID 0000.0001) > OBNptrFile(9)='OBN_DON_76x72x24_baltic_128.bin',
(PID.TID 0000.0001) > OBWptrFile(9)='OBW_DON_76x72x24_baltic_128.bin',
(PID.TID 0000.0001) > OBNptrFile(10)='OBN_DOP_76x72x24_baltic_128.bin',
(PID.TID 0000.0001) > OBWptrFile(10)='OBW_DOP_76x72x24_baltic_128.bin',
(PID.TID 0000.0001) > OBNptrFile(11)='OBN_DOFe_76x72x24_baltic_128.bin',
(PID.TID 0000.0001) > OBWptrFile(11)='OBW_DOFe_76x72x24_baltic_128.bin',
(PID.TID 0000.0001) > OBNptrFile(12)='OBN_zero_76x72x24_baltic_128.bin',
(PID.TID 0000.0001) > OBWptrFile(12)='OBW_zero_76x72x24_baltic_128.bin',
(PID.TID 0000.0001) > OBNptrFile(13)='OBN_PON_76x72x24_baltic_128.bin',
(PID.TID 0000.0001) > OBWptrFile(13)='OBW_PON_76x72x24_baltic_128.bin',
(PID.TID 0000.0001) > OBNptrFile(14)='OBN_POP_76x72x24_baltic_128.bin',
(PID.TID 0000.0001) > OBWptrFile(14)='OBW_POP_76x72x24_baltic_128.bin',
(PID.TID 0000.0001) > OBNptrFile(15)='OBN_POSi_76x72x24_baltic_128.bin',
(PID.TID 0000.0001) > OBWptrFile(15)='OBW_POSi_76x72x24_baltic_128.bin',
(PID.TID 0000.0001) > OBNptrFile(16)='OBN_POFe_76x72x24_baltic_128.bin',
(PID.TID 0000.0001) > OBWptrFile(16)='OBW_POFe_76x72x24_baltic_128.bin',
(PID.TID 0000.0001) > OBNptrFile(17)='OBN_zero_76x72x24_baltic_128.bin',
(PID.TID 0000.0001) > OBWptrFile(17)='OBW_zero_76x72x24_baltic_128.bin',
(PID.TID 0000.0001) > OBNptrFile(18)='OBN_Phy01_76x72x24_baltic_128.bin',
(PID.TID 0000.0001) > OBWptrFile(18)='OBW_Phy01_76x72x24_baltic_128.bin',
(PID.TID 0000.0001) > OBNptrFile(19)='OBN_Phy02_76x72x24_baltic_128.bin',
(PID.TID 0000.0001) > OBWptrFile(19)='OBW_Phy02_76x72x24_baltic_128.bin',
(PID.TID 0000.0001) > OBNptrFile(20)='OBN_Phy03_76x72x24_baltic_128.bin',
(PID.TID 0000.0001) > OBWptrFile(20)='OBW_Phy03_76x72x24_baltic_128.bin',
(PID.TID 0000.0001) > OBNptrFile(21)='OBN_Phy04_76x72x24_baltic_128.bin',
(PID.TID 0000.0001) > OBWptrFile(21)='OBW_Phy04_76x72x24_baltic_128.bin',
(PID.TID 0000.0001) > OBNptrFile(22)='OBN_Phy05_76x72x24_baltic_128.bin',
(PID.TID 0000.0001) > OBWptrFile(22)='OBW_Phy05_76x72x24_baltic_128.bin',
(PID.TID 0000.0001) > OBNptrFile(23)='OBN_Phy06_76x72x24_baltic_128.bin',
(PID.TID 0000.0001) > OBWptrFile(23)='OBW_Phy06_76x72x24_baltic_128.bin',
(PID.TID 0000.0001) > OBNptrFile(24)='OBN_Phy07_76x72x24_baltic_128.bin',
(PID.TID 0000.0001) > OBWptrFile(24)='OBW_Phy07_76x72x24_baltic_128.bin',
(PID.TID 0000.0001) > OBNptrFile(25)='OBN_Phy08_76x72x24_baltic_128.bin',
(PID.TID 0000.0001) > OBWptrFile(25)='OBW_Phy08_76x72x24_baltic_128.bin',
(PID.TID 0000.0001) > OBNptrFile(26)='OBN_Phy09_76x72x24_baltic_128.bin',
(PID.TID 0000.0001) > OBWptrFile(26)='OBW_Phy09_76x72x24_baltic_128.bin',
(PID.TID 0000.0001) > OBNptrFile(27)='OBN_Phy10_76x72x24_baltic_128.bin',
(PID.TID 0000.0001) > OBWptrFile(27)='OBW_Phy10_76x72x24_baltic_128.bin',
(PID.TID 0000.0001) > OBNptrFile(28)='OBN_Phy11_76x72x24_baltic_128.bin',
(PID.TID 0000.0001) > OBWptrFile(28)='OBW_Phy11_76x72x24_baltic_128.bin',
(PID.TID 0000.0001) > OBNptrFile(29)='OBN_Phy12_76x72x24_baltic_128.bin',
(PID.TID 0000.0001) > OBWptrFile(29)='OBW_Phy12_76x72x24_baltic_128.bin',
(PID.TID 0000.0001) > OBNptrFile(30)='OBN_Phy13_76x72x24_baltic_128.bin',
(PID.TID 0000.0001) > OBWptrFile(30)='OBW_Phy13_76x72x24_baltic_128.bin',
(PID.TID 0000.0001) > OBNptrFile(31)='OBN_Phy14_76x72x24_baltic_128.bin',
(PID.TID 0000.0001) > OBWptrFile(31)='OBW_Phy14_76x72x24_baltic_128.bin',
(PID.TID 0000.0001) > OBNptrFile(32)='OBN_Phy15_76x72x24_baltic_128.bin',
(PID.TID 0000.0001) > OBWptrFile(32)='OBW_Phy15_76x72x24_baltic_128.bin',
(PID.TID 0000.0001) > OBNptrFile(33)='OBN_Phy16_76x72x24_baltic_128.bin',
(PID.TID 0000.0001) > OBWptrFile(33)='OBW_Phy16_76x72x24_baltic_128.bin',
(PID.TID 0000.0001) > OBNptrFile(34)='OBN_Phy17_76x72x24_baltic_128.bin',
(PID.TID 0000.0001) > OBWptrFile(34)='OBW_Phy17_76x72x24_baltic_128.bin',
(PID.TID 0000.0001) > OBNptrFile(35)='OBN_Phy18_76x72x24_baltic_128.bin',
(PID.TID 0000.0001) > OBWptrFile(35)='OBW_Phy18_76x72x24_baltic_128.bin',
(PID.TID 0000.0001) > OBNptrFile(36)='OBN_Phy19_76x72x24_baltic_128.bin',
(PID.TID 0000.0001) > OBWptrFile(36)='OBW_Phy19_76x72x24_baltic_128.bin',
(PID.TID 0000.0001) > OBNptrFile(37)='OBN_Phy20_76x72x24_baltic_128.bin',
(PID.TID 0000.0001) > OBWptrFile(37)='OBW_Phy20_76x72x24_baltic_128.bin',
(PID.TID 0000.0001) > OBNptrFile(38)='OBN_Phy21_76x72x24_baltic_128.bin',
(PID.TID 0000.0001) > OBWptrFile(38)='OBW_Phy21_76x72x24_baltic_128.bin',
(PID.TID 0000.0001) > OBNptrFile(39)='OBN_Phy22_76x72x24_baltic_128.bin',
(PID.TID 0000.0001) > OBWptrFile(39)='OBW_Phy22_76x72x24_baltic_128.bin',
(PID.TID 0000.0001) > OBNptrFile(40)='OBN_Phy23_76x72x24_baltic_128.bin',
(PID.TID 0000.0001) > OBWptrFile(40)='OBW_Phy23_76x72x24_baltic_128.bin',
(PID.TID 0000.0001) > OBNptrFile(41)='OBN_Phy24_76x72x24_baltic_128.bin',
(PID.TID 0000.0001) > OBWptrFile(41)='OBW_Phy24_76x72x24_baltic_128.bin',
(PID.TID 0000.0001) > OBNptrFile(42)='OBN_Phy25_76x72x24_baltic_128.bin',
(PID.TID 0000.0001) > OBWptrFile(42)='OBW_Phy25_76x72x24_baltic_128.bin',
(PID.TID 0000.0001) > OBNptrFile(43)='OBN_Phy26_76x72x24_baltic_128.bin',
(PID.TID 0000.0001) > OBWptrFile(43)='OBW_Phy26_76x72x24_baltic_128.bin',
(PID.TID 0000.0001) > OBNptrFile(44)='OBN_Phy27_76x72x24_baltic_128.bin',
(PID.TID 0000.0001) > OBWptrFile(44)='OBW_Phy27_76x72x24_baltic_128.bin',
(PID.TID 0000.0001) > OBNptrFile(45)='OBN_Phy28_76x72x24_baltic_128.bin',
(PID.TID 0000.0001) > OBWptrFile(45)='OBW_Phy28_76x72x24_baltic_128.bin',
(PID.TID 0000.0001) > OBNptrFile(46)='OBN_Phy29_76x72x24_baltic_128.bin',
(PID.TID 0000.0001) > OBWptrFile(46)='OBW_Phy29_76x72x24_baltic_128.bin',
(PID.TID 0000.0001) > OBNptrFile(47)='OBN_Phy30_76x72x24_baltic_128.bin',
(PID.TID 0000.0001) > OBWptrFile(47)='OBW_Phy30_76x72x24_baltic_128.bin',
(PID.TID 0000.0001) > OBNptrFile(48)='OBN_Phy31_76x72x24_baltic_128.bin',
(PID.TID 0000.0001) > OBWptrFile(48)='OBW_Phy31_76x72x24_baltic_128.bin',
(PID.TID 0000.0001) > OBNptrFile(49)='OBN_Phy32_76x72x24_baltic_128.bin',
(PID.TID 0000.0001) > OBWptrFile(49)='OBW_Phy32_76x72x24_baltic_128.bin',
(PID.TID 0000.0001) > OBNptrFile(50)='OBN_Phy33_76x72x24_baltic_128.bin',
(PID.TID 0000.0001) > OBWptrFile(50)='OBW_Phy33_76x72x24_baltic_128.bin',
(PID.TID 0000.0001) > OBNptrFile(51)='OBN_Phy34_76x72x24_baltic_128.bin',
(PID.TID 0000.0001) > OBWptrFile(51)='OBW_Phy34_76x72x24_baltic_128.bin',
(PID.TID 0000.0001) > OBNptrFile(52)='OBN_Phy35_76x72x24_baltic_128.bin',
(PID.TID 0000.0001) > OBWptrFile(52)='OBW_Phy35_76x72x24_baltic_128.bin',
(PID.TID 0000.0001) > OBNptrFile(53)='OBN_Phy36_76x72x24_baltic_128.bin',
(PID.TID 0000.0001) > OBWptrFile(53)='OBW_Phy36_76x72x24_baltic_128.bin',
(PID.TID 0000.0001) > OBNptrFile(54)='OBN_Phy37_76x72x24_baltic_128.bin',
(PID.TID 0000.0001) > OBWptrFile(54)='OBW_Phy37_76x72x24_baltic_128.bin',
(PID.TID 0000.0001) > OBNptrFile(55)='OBN_Phy38_76x72x24_baltic_128.bin',
(PID.TID 0000.0001) > OBWptrFile(55)='OBW_Phy38_76x72x24_baltic_128.bin',
(PID.TID 0000.0001) > OBNptrFile(56)='OBN_Phy39_76x72x24_baltic_128.bin',
(PID.TID 0000.0001) > OBWptrFile(56)='OBW_Phy39_76x72x24_baltic_128.bin',
(PID.TID 0000.0001) > OBNptrFile(57)='OBN_Phy40_76x72x24_baltic_128.bin',
(PID.TID 0000.0001) > OBWptrFile(57)='OBW_Phy40_76x72x24_baltic_128.bin',
(PID.TID 0000.0001) > OBNptrFile(58)='OBN_Phy41_76x72x24_baltic_128.bin',
(PID.TID 0000.0001) > OBWptrFile(58)='OBW_Phy41_76x72x24_baltic_128.bin',
(PID.TID 0000.0001) > OBNptrFile(59)='OBN_Phy42_76x72x24_baltic_128.bin',
(PID.TID 0000.0001) > OBWptrFile(59)='OBW_Phy42_76x72x24_baltic_128.bin',
(PID.TID 0000.0001) > OBNptrFile(60)='OBN_Phy43_76x72x24_baltic_128.bin',
(PID.TID 0000.0001) > OBWptrFile(60)='OBW_Phy43_76x72x24_baltic_128.bin',
(PID.TID 0000.0001) > OBNptrFile(61)='OBN_Phy44_76x72x24_baltic_128.bin',
(PID.TID 0000.0001) > OBWptrFile(61)='OBW_Phy44_76x72x24_baltic_128.bin',
(PID.TID 0000.0001) > OBNptrFile(62)='OBN_Phy45_76x72x24_baltic_128.bin',
(PID.TID 0000.0001) > OBWptrFile(62)='OBW_Phy45_76x72x24_baltic_128.bin',
(PID.TID 0000.0001) > OBNptrFile(63)='OBN_Phy46_76x72x24_baltic_128.bin',
(PID.TID 0000.0001) > OBWptrFile(63)='OBW_Phy46_76x72x24_baltic_128.bin',
(PID.TID 0000.0001) > OBNptrFile(64)='OBN_Phy47_76x72x24_baltic_128.bin',
(PID.TID 0000.0001) > OBWptrFile(64)='OBW_Phy47_76x72x24_baltic_128.bin',
(PID.TID 0000.0001) > OBNptrFile(65)='OBN_Phy48_76x72x24_baltic_128.bin',
(PID.TID 0000.0001) > OBWptrFile(65)='OBW_Phy48_76x72x24_baltic_128.bin',
(PID.TID 0000.0001) > OBNptrFile(66)='OBN_Phy49_76x72x24_baltic_128.bin',
(PID.TID 0000.0001) > OBWptrFile(66)='OBW_Phy49_76x72x24_baltic_128.bin',
(PID.TID 0000.0001) > OBNptrFile(67)='OBN_Phy50_76x72x24_baltic_128.bin',
(PID.TID 0000.0001) > OBWptrFile(67)='OBW_Phy50_76x72x24_baltic_128.bin',
(PID.TID 0000.0001) > OBNptrFile(68)='OBN_Phy51_76x72x24_baltic_128.bin',
(PID.TID 0000.0001) > OBWptrFile(68)='OBW_Phy51_76x72x24_baltic_128.bin',
(PID.TID 0000.0001) > OBNptrFile(69)='OBN_Phy52_76x72x24_baltic_128.bin',
(PID.TID 0000.0001) > OBWptrFile(69)='OBW_Phy52_76x72x24_baltic_128.bin',
(PID.TID 0000.0001) > OBNptrFile(70)='OBN_Phy53_76x72x24_baltic_128.bin',
(PID.TID 0000.0001) > OBWptrFile(70)='OBW_Phy53_76x72x24_baltic_128.bin',
(PID.TID 0000.0001) > OBNptrFile(71)='OBN_Phy54_76x72x24_baltic_128.bin',
(PID.TID 0000.0001) > OBWptrFile(71)='OBW_Phy54_76x72x24_baltic_128.bin',
(PID.TID 0000.0001) > OBNptrFile(72)='OBN_Phy55_76x72x24_baltic_128.bin',
(PID.TID 0000.0001) > OBWptrFile(72)='OBW_Phy55_76x72x24_baltic_128.bin',
(PID.TID 0000.0001) > OBNptrFile(73)='OBN_Phy56_76x72x24_baltic_128.bin',
(PID.TID 0000.0001) > OBWptrFile(73)='OBW_Phy56_76x72x24_baltic_128.bin',
(PID.TID 0000.0001) > OBNptrFile(74)='OBN_Phy57_76x72x24_baltic_128.bin',
(PID.TID 0000.0001) > OBWptrFile(74)='OBW_Phy57_76x72x24_baltic_128.bin',
(PID.TID 0000.0001) > OBNptrFile(75)='OBN_Phy58_76x72x24_baltic_128.bin',
(PID.TID 0000.0001) > OBWptrFile(75)='OBW_Phy58_76x72x24_baltic_128.bin',
(PID.TID 0000.0001) > OBNptrFile(76)='OBN_Phy59_76x72x24_baltic_128.bin',
(PID.TID 0000.0001) > OBWptrFile(76)='OBW_Phy59_76x72x24_baltic_128.bin',
(PID.TID 0000.0001) > OBNptrFile(77)='OBN_Phy60_76x72x24_baltic_128.bin',
(PID.TID 0000.0001) > OBWptrFile(77)='OBW_Phy60_76x72x24_baltic_128.bin',
(PID.TID 0000.0001) > OBNptrFile(78)='OBN_Phy61_76x72x24_baltic_128.bin',
(PID.TID 0000.0001) > OBWptrFile(78)='OBW_Phy61_76x72x24_baltic_128.bin',
(PID.TID 0000.0001) > OBNptrFile(79)='OBN_Phy62_76x72x24_baltic_128.bin',
(PID.TID 0000.0001) > OBWptrFile(79)='OBW_Phy62_76x72x24_baltic_128.bin',
(PID.TID 0000.0001) > OBNptrFile(80)='OBN_Phy63_76x72x24_baltic_128.bin',
(PID.TID 0000.0001) > OBWptrFile(80)='OBW_Phy63_76x72x24_baltic_128.bin',
(PID.TID 0000.0001) > OBNptrFile(81)='OBN_Phy64_76x72x24_baltic_128.bin',
(PID.TID 0000.0001) > OBWptrFile(81)='OBW_Phy64_76x72x24_baltic_128.bin',
(PID.TID 0000.0001) > OBNptrFile(82)='OBN_Phy65_76x72x24_baltic_128.bin',
(PID.TID 0000.0001) > OBWptrFile(82)='OBW_Phy65_76x72x24_baltic_128.bin',
(PID.TID 0000.0001) > OBNptrFile(83)='OBN_Phy66_76x72x24_baltic_128.bin',
(PID.TID 0000.0001) > OBWptrFile(83)='OBW_Phy66_76x72x24_baltic_128.bin',
(PID.TID 0000.0001) > OBNptrFile(84)='OBN_Phy67_76x72x24_baltic_128.bin',
(PID.TID 0000.0001) > OBWptrFile(84)='OBW_Phy67_76x72x24_baltic_128.bin',
(PID.TID 0000.0001) > OBNptrFile(85)='OBN_Phy68_76x72x24_baltic_128.bin',
(PID.TID 0000.0001) > OBWptrFile(85)='OBW_Phy68_76x72x24_baltic_128.bin',
(PID.TID 0000.0001) > OBNptrFile(86)='OBN_Phy69_76x72x24_baltic_128.bin',
(PID.TID 0000.0001) > OBWptrFile(86)='OBW_Phy69_76x72x24_baltic_128.bin',
(PID.TID 0000.0001) > OBNptrFile(87)='OBN_Phy70_76x72x24_baltic_128.bin',
(PID.TID 0000.0001) > OBWptrFile(87)='OBW_Phy70_76x72x24_baltic_128.bin',
(PID.TID 0000.0001) > OBNptrFile(88)='OBN_Phy71_76x72x24_baltic_128.bin',
(PID.TID 0000.0001) > OBWptrFile(88)='OBW_Phy71_76x72x24_baltic_128.bin',
(PID.TID 0000.0001) > OBNptrFile(89)='OBN_Phy72_76x72x24_baltic_128.bin',
(PID.TID 0000.0001) > OBWptrFile(89)='OBW_Phy72_76x72x24_baltic_128.bin',
(PID.TID 0000.0001) > OBNptrFile(90)='OBN_Phy73_76x72x24_baltic_128.bin',
(PID.TID 0000.0001) > OBWptrFile(90)='OBW_Phy73_76x72x24_baltic_128.bin',
(PID.TID 0000.0001) > OBNptrFile(91)='OBN_Phy74_76x72x24_baltic_128.bin',
(PID.TID 0000.0001) > OBWptrFile(91)='OBW_Phy74_76x72x24_baltic_128.bin',
(PID.TID 0000.0001) > OBNptrFile(92)='OBN_Phy75_76x72x24_baltic_128.bin',
(PID.TID 0000.0001) > OBWptrFile(92)='OBW_Phy75_76x72x24_baltic_128.bin',
(PID.TID 0000.0001) > OBNptrFile(93)='OBN_Phy76_76x72x24_baltic_128.bin',
(PID.TID 0000.0001) > OBWptrFile(93)='OBW_Phy76_76x72x24_baltic_128.bin',
(PID.TID 0000.0001) > OBNptrFile(94)='OBN_Phy77_76x72x24_baltic_128.bin',
(PID.TID 0000.0001) > OBWptrFile(94)='OBW_Phy77_76x72x24_baltic_128.bin',
(PID.TID 0000.0001) > OBNptrFile(95)='OBN_Phy78_76x72x24_baltic_128.bin',
(PID.TID 0000.0001) > OBWptrFile(95)='OBW_Phy78_76x72x24_baltic_128.bin',
(PID.TID 0000.0001) > OBNptrFile(96)='OBN_ZOO1P_76x72x24_baltic_128.bin',
(PID.TID 0000.0001) > OBWptrFile(96)='OBW_ZOO1P_76x72x24_baltic_128.bin',
(PID.TID 0000.0001) > OBNptrFile(97)='OBN_ZOO2P_76x72x24_baltic_128.bin',
(PID.TID 0000.0001) > OBWptrFile(97)='OBW_ZOO2P_76x72x24_baltic_128.bin',
(PID.TID 0000.0001) > OBCSptrFactor(1:17)= 17*1.0,
(PID.TID 0000.0001) > OBCSptrFactor(18:97)= 80*120.0,
(PID.TID 0000.0001) >#
(PID.TID 0000.0001) > /
(PID.TID 0000.0001) >
(PID.TID 0000.0001) ># *****************************************
(PID.TID 0000.0001) ># Orlanski Boundary Condition Parameters.
(PID.TID 0000.0001) ># *****************************************
(PID.TID 0000.0001) ># &OBCS_PARM02
(PID.TID 0000.0001) ># cvelTimeScale = 2000.,
(PID.TID 0000.0001) ># /
(PID.TID 0000.0001) >
(PID.TID 0000.0001) ># *****************************************
(PID.TID 0000.0001) ># Sponge Layer Parameters.
(PID.TID 0000.0001) ># *****************************************
(PID.TID 0000.0001) ># &OBCS_PARM03
(PID.TID 0000.0001) ># Urelaxobcsinner=7776000.E0,
(PID.TID 0000.0001) ># Urelaxobcsbound=2592000.E0,
(PID.TID 0000.0001) ># Vrelaxobcsinner=7776000.E0,
(PID.TID 0000.0001) ># Vrelaxobcsbound=2592000.E0,
(PID.TID 0000.0001) ># spongeThickness=10,
(PID.TID 0000.0001) ># /
(PID.TID 0000.0001) 
(PID.TID 0000.0001)  OBCS_READPARMS: finished reading data.obcs
(PID.TID 0000.0001)  OB_indexUnset = /* unset OB index value (i.e. no OB) */
(PID.TID 0000.0001)                       0
(PID.TID 0000.0001)     ;
(PID.TID 0000.0001)  Northern OB global indices : OB_Jnorth =
(PID.TID 0000.0001)    76 @       72                            /* I =  1: 76 */
(PID.TID 0000.0001)  Southern OB global indices : OB_Jsouth =
(PID.TID 0000.0001)    76 @        0                            /* I =  1: 76 */
(PID.TID 0000.0001)  Eastern  OB global indices : OB_Ieast =
(PID.TID 0000.0001)    72 @        0                            /* J =  1: 72 */
(PID.TID 0000.0001)  Western  OB global indices : OB_Iwest =
(PID.TID 0000.0001)    72 @        1                            /* J =  1: 72 */
(PID.TID 0000.0001) 
(PID.TID 0000.0001)  KPP_INIT: opening data.kpp
(PID.TID 0000.0001)  OPEN_COPY_DATA_FILE: opening file data.kpp
(PID.TID 0000.0001) // =======================================================
(PID.TID 0000.0001) // Parameter file "data.kpp"
(PID.TID 0000.0001) // =======================================================
(PID.TID 0000.0001) ># KPP parameters
(PID.TID 0000.0001) > &KPP_PARM01
(PID.TID 0000.0001) > KPPmixingMaps   = .FALSE.,
(PID.TID 0000.0001) > KPPwriteState   = .FALSE.,
(PID.TID 0000.0001) > kpp_dumpFreq    = 0.
(PID.TID 0000.0001) > kpp_tavefreq    = 0.
(PID.TID 0000.0001) > Ricr            = 0.3559
(PID.TID 0000.0001) > Riinfty         = 0.6998
(PID.TID 0000.0001) > /
(PID.TID 0000.0001) 
(PID.TID 0000.0001)  KPP_INIT: finished reading data.kpp
(PID.TID 0000.0001)  PTRACERS_READPARMS: opening data.ptracers
(PID.TID 0000.0001)  OPEN_COPY_DATA_FILE: opening file data.ptracers
(PID.TID 0000.0001) // =======================================================
(PID.TID 0000.0001) // Parameter file "data.ptracers"
(PID.TID 0000.0001) // =======================================================
(PID.TID 0000.0001) > &PTRACERS_PARM01
(PID.TID 0000.0001) > PTRACERS_numInUse=97,
(PID.TID 0000.0001) ># 366 days == 19930101 060000
(PID.TID 0000.0001) > PTRACERS_Iter0= 26352,
(PID.TID 0000.0001) >#
(PID.TID 0000.0001) > PTRACERS_advScheme = 97*33,
(PID.TID 0000.0001) > PTRACERS_diffKh    = 97*0.E3,
(PID.TID 0000.0001) > PTRACERS_diffKr    = 97*1.E-6,
(PID.TID 0000.0001) > PTRACERS_useKPP    = 97*.TRUE. ,
(PID.TID 0000.0001) >#
(PID.TID 0000.0001) > PTRACERS_names(1)= 'DIC',
(PID.TID 0000.0001) > PTRACERS_names(2)= 'NH4',
(PID.TID 0000.0001) > PTRACERS_names(3)= 'NO2',
(PID.TID 0000.0001) > PTRACERS_names(4)= 'NO3',
(PID.TID 0000.0001) > PTRACERS_names(5)= 'PO4',
(PID.TID 0000.0001) > PTRACERS_names(6)= 'SiO2',
(PID.TID 0000.0001) > PTRACERS_names(7)= 'FeT',
(PID.TID 0000.0001) > PTRACERS_names(8)= 'DOC',
(PID.TID 0000.0001) > PTRACERS_names(9)= 'DON',
(PID.TID 0000.0001) > PTRACERS_names(10)= 'DOP',
(PID.TID 0000.0001) > PTRACERS_names(11)= 'DOFe',
(PID.TID 0000.0001) > PTRACERS_names(12)= 'POC',
(PID.TID 0000.0001) > PTRACERS_names(13)= 'PON',
(PID.TID 0000.0001) > PTRACERS_names(14)= 'POP',
(PID.TID 0000.0001) > PTRACERS_names(15)= 'POSi',
(PID.TID 0000.0001) > PTRACERS_names(16)= 'POFe',
(PID.TID 0000.0001) > PTRACERS_names(17)= 'PIC',
(PID.TID 0000.0001) > PTRACERS_names(18)= 'c01',
(PID.TID 0000.0001) > PTRACERS_names(19)= 'c02',
(PID.TID 0000.0001) > PTRACERS_names(20)= 'c03',
(PID.TID 0000.0001) > PTRACERS_names(21)= 'c04',
(PID.TID 0000.0001) > PTRACERS_names(22)= 'c05',
(PID.TID 0000.0001) > PTRACERS_names(23)= 'c06',
(PID.TID 0000.0001) > PTRACERS_names(24)= 'c07',
(PID.TID 0000.0001) > PTRACERS_names(25)= 'c08',
(PID.TID 0000.0001) > PTRACERS_names(26)= 'c09',
(PID.TID 0000.0001) > PTRACERS_names(27)= 'c10',
(PID.TID 0000.0001) > PTRACERS_names(28)= 'c11',
(PID.TID 0000.0001) > PTRACERS_names(29)= 'c12',
(PID.TID 0000.0001) > PTRACERS_names(30)= 'c13',
(PID.TID 0000.0001) > PTRACERS_names(31)= 'c14',
(PID.TID 0000.0001) > PTRACERS_names(32)= 'c15',
(PID.TID 0000.0001) > PTRACERS_names(33)= 'c16',
(PID.TID 0000.0001) > PTRACERS_names(34)= 'c17',
(PID.TID 0000.0001) > PTRACERS_names(35)= 'c18',
(PID.TID 0000.0001) > PTRACERS_names(36)= 'c19',
(PID.TID 0000.0001) > PTRACERS_names(37)= 'c20',
(PID.TID 0000.0001) > PTRACERS_names(38)= 'c21',
(PID.TID 0000.0001) > PTRACERS_names(39)= 'c22',
(PID.TID 0000.0001) > PTRACERS_names(40)= 'c23',
(PID.TID 0000.0001) > PTRACERS_names(41)= 'c24',
(PID.TID 0000.0001) > PTRACERS_names(42)= 'c25',
(PID.TID 0000.0001) > PTRACERS_names(43)= 'c26',
(PID.TID 0000.0001) > PTRACERS_names(44)= 'c27',
(PID.TID 0000.0001) > PTRACERS_names(45)= 'c28',
(PID.TID 0000.0001) > PTRACERS_names(46)= 'c29',
(PID.TID 0000.0001) > PTRACERS_names(47)= 'c30',
(PID.TID 0000.0001) > PTRACERS_names(48)= 'c31',
(PID.TID 0000.0001) > PTRACERS_names(49)= 'c32',
(PID.TID 0000.0001) > PTRACERS_names(50)= 'c33',
(PID.TID 0000.0001) > PTRACERS_names(51)= 'c34',
(PID.TID 0000.0001) > PTRACERS_names(52)= 'c35',
(PID.TID 0000.0001) > PTRACERS_names(53)= 'c36',
(PID.TID 0000.0001) > PTRACERS_names(54)= 'c37',
(PID.TID 0000.0001) > PTRACERS_names(55)= 'c38',
(PID.TID 0000.0001) > PTRACERS_names(56)= 'c39',
(PID.TID 0000.0001) > PTRACERS_names(57)= 'c40',
(PID.TID 0000.0001) > PTRACERS_names(58)= 'c41',
(PID.TID 0000.0001) > PTRACERS_names(59)= 'c42',
(PID.TID 0000.0001) > PTRACERS_names(60)= 'c43',
(PID.TID 0000.0001) > PTRACERS_names(61)= 'c44',
(PID.TID 0000.0001) > PTRACERS_names(62)= 'c45',
(PID.TID 0000.0001) > PTRACERS_names(63)= 'c46',
(PID.TID 0000.0001) > PTRACERS_names(64)= 'c47',
(PID.TID 0000.0001) > PTRACERS_names(65)= 'c48',
(PID.TID 0000.0001) > PTRACERS_names(66)= 'c49',
(PID.TID 0000.0001) > PTRACERS_names(67)= 'c50',
(PID.TID 0000.0001) > PTRACERS_names(68)= 'c51',
(PID.TID 0000.0001) > PTRACERS_names(69)= 'c52',
(PID.TID 0000.0001) > PTRACERS_names(70)= 'c53',
(PID.TID 0000.0001) > PTRACERS_names(71)= 'c54',
(PID.TID 0000.0001) > PTRACERS_names(72)= 'c55',
(PID.TID 0000.0001) > PTRACERS_names(73)= 'c56',
(PID.TID 0000.0001) > PTRACERS_names(74)= 'c57',
(PID.TID 0000.0001) > PTRACERS_names(75)= 'c58',
(PID.TID 0000.0001) > PTRACERS_names(76)= 'c59',
(PID.TID 0000.0001) > PTRACERS_names(77)= 'c60',
(PID.TID 0000.0001) > PTRACERS_names(78)= 'c61',
(PID.TID 0000.0001) > PTRACERS_names(79)= 'c62',
(PID.TID 0000.0001) > PTRACERS_names(80)= 'c63',
(PID.TID 0000.0001) > PTRACERS_names(81)= 'c64',
(PID.TID 0000.0001) > PTRACERS_names(82)= 'c65',
(PID.TID 0000.0001) > PTRACERS_names(83)= 'c66',
(PID.TID 0000.0001) > PTRACERS_names(84)= 'c67',
(PID.TID 0000.0001) > PTRACERS_names(85)= 'c68',
(PID.TID 0000.0001) > PTRACERS_names(86)= 'c69',
(PID.TID 0000.0001) > PTRACERS_names(87)= 'c70',
(PID.TID 0000.0001) > PTRACERS_names(88)= 'c71',
(PID.TID 0000.0001) > PTRACERS_names(89)= 'c72',
(PID.TID 0000.0001) > PTRACERS_names(90)= 'c73',
(PID.TID 0000.0001) > PTRACERS_names(91)= 'c74',
(PID.TID 0000.0001) > PTRACERS_names(92)= 'c75',
(PID.TID 0000.0001) > PTRACERS_names(93)= 'c76',
(PID.TID 0000.0001) > PTRACERS_names(94)= 'c77',
(PID.TID 0000.0001) > PTRACERS_names(95)= 'c78',
(PID.TID 0000.0001) > PTRACERS_names(96)= 'zc1',
(PID.TID 0000.0001) > PTRACERS_names(97)= 'zc2',
(PID.TID 0000.0001) >#
(PID.TID 0000.0001) > PTRACERS_units(1)='mmol C/m^3'
(PID.TID 0000.0001) > PTRACERS_units(2)='mmol N/m^3'
(PID.TID 0000.0001) > PTRACERS_units(3)='mmol N/m^3'
(PID.TID 0000.0001) > PTRACERS_units(4)='mmol N/m^3'
(PID.TID 0000.0001) > PTRACERS_units(5)='mmol P/m^3'
(PID.TID 0000.0001) > PTRACERS_units(6)='mmol Si/m^3'
(PID.TID 0000.0001) > PTRACERS_units(7)='mmol Fe/m^3'
(PID.TID 0000.0001) > PTRACERS_units(8)='mmol C/m^3'
(PID.TID 0000.0001) > PTRACERS_units(9)='mmol N/m^3'
(PID.TID 0000.0001) > PTRACERS_units(10)='mmol P/m^3'
(PID.TID 0000.0001) > PTRACERS_units(11)='mmol Fe/m^3'
(PID.TID 0000.0001) > PTRACERS_units(12)='mmol C/m^3'
(PID.TID 0000.0001) > PTRACERS_units(13)='mmol N/m^3'
(PID.TID 0000.0001) > PTRACERS_units(14)='mmol P/m^3'
(PID.TID 0000.0001) > PTRACERS_units(15)='mmol Si/m^3'
(PID.TID 0000.0001) > PTRACERS_units(16)='mmol Fe/m^3'
(PID.TID 0000.0001) > PTRACERS_units(17)='mmol C/m^3'
(PID.TID 0000.0001) > PTRACERS_units(18:97)=80*'mmol C/m^3'
(PID.TID 0000.0001) >#
(PID.TID 0000.0001) > /
(PID.TID 0000.0001) 
(PID.TID 0000.0001)  PTRACERS_READPARMS: finished reading data.ptracers
(PID.TID 0000.0001)  GCHEM_READPARMS: opening data.gchem
(PID.TID 0000.0001)  OPEN_COPY_DATA_FILE: opening file data.gchem
(PID.TID 0000.0001) // =======================================================
(PID.TID 0000.0001) // Parameter file "data.gchem"
(PID.TID 0000.0001) // =======================================================
(PID.TID 0000.0001) > &GCHEM_PARM01
(PID.TID 0000.0001) > useGUD=.TRUE.,
(PID.TID 0000.0001) > nsubtime=1,
(PID.TID 0000.0001) ># now set in data.gud
(PID.TID 0000.0001) >#gchem_ForcingPeriod=2592000.,
(PID.TID 0000.0001) >#gchem_ForcingCycle=31104000.,
(PID.TID 0000.0001) > /
(PID.TID 0000.0001) 
(PID.TID 0000.0001)  GCHEM_READPARMS: finished reading data.gchem
(PID.TID 0000.0001)  GUD_READPARMS: opening data.gud
(PID.TID 0000.0001)  OPEN_COPY_DATA_FILE: opening file data.gud
(PID.TID 0000.0001) // =======================================================
(PID.TID 0000.0001) // Parameter file "data.gud"
(PID.TID 0000.0001) // =======================================================
(PID.TID 0000.0001) > &GUD_FORCING_PARAMS
(PID.TID 0000.0001) >  useGudYearlyFields= .TRUE.,
(PID.TID 0000.0001) > /
(PID.TID 0000.0001) > &GUD_EXF_PARAMS
(PID.TID 0000.0001) ># iceFile='gud/nasa_icefraction_mth-2d.bin',
(PID.TID 0000.0001) >#
(PID.TID 0000.0001) >  ironFile='Fe_const_76x72_12_',
(PID.TID 0000.0001) ># emulate silly 30-day period from monod
(PID.TID 0000.0001) >  ironStartDate1=19920116,
(PID.TID 0000.0001) >  ironStartDate2=000000,
(PID.TID 0000.0001) >  ironPeriod= 2592000.,
(PID.TID 0000.0001) >  gud_inscal_iron= 1000.,
(PID.TID 0000.0001) >#
(PID.TID 0000.0001) ># gud_PARFile='gud/par_ecco.bin_mth-2d.bin',
(PID.TID 0000.0001) ># gud_nutWVelFile='',
(PID.TID 0000.0001) > /
(PID.TID 0000.0001) > &GUD_INTERP_PARAMS
(PID.TID 0000.0001) >  iron_interpMethod= 0,
(PID.TID 0000.0001) > /
(PID.TID 0000.0001) > &GUD_PARAMS
(PID.TID 0000.0001) >  gud_seed=11231,
(PID.TID 0000.0001) >#  gud_read_phos=T,
(PID.TID 0000.0001) >  PARmin= 1.0,
(PID.TID 0000.0001) > /
(PID.TID 0000.0001) > &GUD_RADTRANS_PARAMS
(PID.TID 0000.0001) > /
(PID.TID 0000.0001) > &GUD_TRAIT_PARAMS
(PID.TID 0000.0001) > diatom_growfac= 1.0,
(PID.TID 0000.0001) > /
(PID.TID 0000.0001) > &GUD_ALLOMETRIC_PARAMS
(PID.TID 0000.0001) > /
(PID.TID 0000.0001) 
(PID.TID 0000.0001)  ===================================
(PID.TID 0000.0001) 
(PID.TID 0000.0001)  SEAICE_READPARMS: opening data.seaice
(PID.TID 0000.0001)  OPEN_COPY_DATA_FILE: opening file data.seaice
(PID.TID 0000.0001) // =======================================================
(PID.TID 0000.0001) // Parameter file "data.seaice"
(PID.TID 0000.0001) // =======================================================
(PID.TID 0000.0001) ># SEAICE parameters
(PID.TID 0000.0001) > &SEAICE_PARM01
(PID.TID 0000.0001) >      SEAICE_dryIceAlb   = 0.8756,
(PID.TID 0000.0001) >      SEAICE_wetIceAlb   = 0.7856,
(PID.TID 0000.0001) >      SEAICE_drySnowAlb  = 0.9656,
(PID.TID 0000.0001) >      SEAICE_wetSnowAlb  = 0.8256,
(PID.TID 0000.0001) >#      SEAICE_waterAlbedo = 0.2756,
(PID.TID 0000.0001) >      SEAICE_strength    = 2.6780e+04,
(PID.TID 0000.0001) >      OCEAN_drag         = 8.1541e-04,
(PID.TID 0000.0001) >      SEAICE_waterDrag   = 5.3508,
(PID.TID 0000.0001) >      LSR_ERROR          = 1e-13,
(PID.TID 0000.0001) >      SEAICEuseDYNAMICS  = .TRUE.,
(PID.TID 0000.0001) >      HeffFile           = '',
(PID.TID 0000.0001) >#      SEAICE_freeze      = -1.7348,
(PID.TID 0000.0001) >      MIN_ATEMP          = -40.,
(PID.TID 0000.0001) >      MIN_TICE           = -40.,
(PID.TID 0000.0001) >#      SEAICE_clipVelocities = .TRUE.,
(PID.TID 0000.0001) >      SEAICEadvSalt      = .FALSE.,
(PID.TID 0000.0001) >      SEAICEadvSnow      = .TRUE.,
(PID.TID 0000.0001) >      SEAICEuseFlooding  = .TRUE.,
(PID.TID 0000.0001) >      SEAICE_saltFrac    = 0.3,
(PID.TID 0000.0001) >      ICE2WATR           = 0.92,
(PID.TID 0000.0001) >#      SEAICE_deltaTevp   = 1.,
(PID.TID 0000.0001) >#      SEAICE_evpTauRelax = 3600.,
(PID.TID 0000.0001) >#      SEAICE_evpDampC    = 615.,
(PID.TID 0000.0001) ># for backward compatibility only:
(PID.TID 0000.0001) > SEAICE_cpAir       = 1.0039560439560439e+03,
(PID.TID 0000.0001) ># SEAICE_lhSublim    = 2.8340219780219775e+06,
(PID.TID 0000.0001) > SEAICE_lhEvap      = 2.5000000000000000e+06,
(PID.TID 0000.0001) > SEAICE_lhFusion    =  3.340219780219775e+05,
(PID.TID 0000.0001) > SEAICE_rhoAir      = 1.3E0,
(PID.TID 0000.0001) >      SEAICEuseFluxForm  = .FALSE.,
(PID.TID 0000.0001) >      DIFF1 = 0.004,
(PID.TID 0000.0001) ># For backward compatibility only:
(PID.TID 0000.0001) ># emissivities should be inherited from exf and setting them here does
(PID.TID 0000.0001) ># not set a good example
(PID.TID 0000.0001) > SEAICE_snow_emiss     = 0.97001763668430343479,
(PID.TID 0000.0001) > SEAICE_ice_emiss      = 0.97001763668430343479,
(PID.TID 0000.0001) >#
(PID.TID 0000.0001) >#- to reproduce old results with former #defined SEAICE_SOLVE4TEMP_LEGACY code
(PID.TID 0000.0001) > useMaykutSatVapPoly = .TRUE.,
(PID.TID 0000.0001) > postSolvTempIter  =  0,
(PID.TID 0000.0001) >#
(PID.TID 0000.0001) ># more compatibility settings
(PID.TID 0000.0001) > SEAICE_frazilFrac  = 1.,
(PID.TID 0000.0001) > SEAICE_mcPheePiston = .00833333333333333333,
(PID.TID 0000.0001) > SEAICE_multDim     = 7,
(PID.TID 0000.0001) > /
(PID.TID 0000.0001) 
(PID.TID 0000.0001)  SEAICE_READPARMS: finished reading data.seaice
(PID.TID 0000.0001)  DIAGNOSTICS_READPARMS: opening data.diagnostics
(PID.TID 0000.0001)  OPEN_COPY_DATA_FILE: opening file data.diagnostics
(PID.TID 0000.0001) // =======================================================
(PID.TID 0000.0001) // Parameter file "data.diagnostics"
(PID.TID 0000.0001) // =======================================================
(PID.TID 0000.0001) ># Gud diagnostics
(PID.TID 0000.0001) ># ==================
(PID.TID 0000.0001) ># PAR                 Photosynthetically active radiation
(PID.TID 0000.0001) ># PP                  Primary production
(PID.TID 0000.0001) ># Nfix                Nitrogen fixation
(PID.TID 0000.0001) ># Rstar01             Rstar^PO4 of Phy01
(PID.TID 0000.0001) ># Diver1              # Phy species over absolute threshold'
(PID.TID 0000.0001) ># Diver2              # Phy species over threshold for proportion of biomass'
(PID.TID 0000.0001) ># Diver3              # Phy species constituting bulk of biomass'
(PID.TID 0000.0001) ># Diver4              # Phy species over threshold for ratio to maximum species'
(PID.TID 0000.0001) >#
(PID.TID 0000.0001) > &diagnostics_list
(PID.TID 0000.0001) >#
(PID.TID 0000.0001) >  frequency(1) = 1200.,
(PID.TID 0000.0001) >  fields( 1,1) = 'TRAC01  ',
(PID.TID 0000.0001) >  fields( 2,1) = 'TRAC02  ',
(PID.TID 0000.0001) >  fields( 3,1) = 'TRAC03  ',
(PID.TID 0000.0001) >  fields( 4,1) = 'TRAC04  ',
(PID.TID 0000.0001) >  fields( 5,1) = 'TRAC05  ',
(PID.TID 0000.0001) >  fields( 6,1) = 'TRAC06  ',
(PID.TID 0000.0001) >  fields( 7,1) = 'TRAC07  ',
(PID.TID 0000.0001) >  fields( 8,1) = 'TRAC08  ',
(PID.TID 0000.0001) >  fields( 9,1) = 'TRAC09  ',
(PID.TID 0000.0001) >  fields(10,1) = 'TRAC10  ',
(PID.TID 0000.0001) >  fields(11,1) = 'TRAC11  ',
(PID.TID 0000.0001) >  fields(12,1) = 'TRAC12  ',
(PID.TID 0000.0001) >  fields(13,1) = 'TRAC13  ',
(PID.TID 0000.0001) >  fields(14,1) = 'TRAC14  ',
(PID.TID 0000.0001) >  fields(15,1) = 'TRAC15  ',
(PID.TID 0000.0001) >  fields(16,1) = 'TRAC16  ',
(PID.TID 0000.0001) >  fields(17,1) = 'TRAC17  ',
(PID.TID 0000.0001) >  fields(18,1) = 'TRAC18  ',
(PID.TID 0000.0001) >  fields(19,1) = 'TRAC19  ',
(PID.TID 0000.0001) >  fields(20,1) = 'TRAC20  ',
(PID.TID 0000.0001) >  fields(21,1) = 'TRAC21  ',
(PID.TID 0000.0001) >  fields(22,1) = 'TRAC22  ',
(PID.TID 0000.0001) >  fields(23,1) = 'TRAC23  ',
(PID.TID 0000.0001) >  fields(24,1) = 'TRAC24  ',
(PID.TID 0000.0001) >  fields(25,1) = 'TRAC25  ',
(PID.TID 0000.0001) >  fields(26,1) = 'TRAC26  ',
(PID.TID 0000.0001) >  fields(27,1) = 'TRAC27  ',
(PID.TID 0000.0001) >  fields(28,1) = 'TRAC28  ',
(PID.TID 0000.0001) >  fields(29,1) = 'TRAC29  ',
(PID.TID 0000.0001) >  fields(30,1) = 'TRAC30  ',
(PID.TID 0000.0001) >  fields(31,1) = 'TRAC31  ',
(PID.TID 0000.0001) >  fields(32,1) = 'TRAC32  ',
(PID.TID 0000.0001) >  fields(33,1) = 'TRAC33  ',
(PID.TID 0000.0001) >  fields(34,1) = 'TRAC34  ',
(PID.TID 0000.0001) >  fields(35,1) = 'TRAC35  ',
(PID.TID 0000.0001) >  fields(36,1) = 'TRAC36  ',
(PID.TID 0000.0001) >  fields(37,1) = 'TRAC37  ',
(PID.TID 0000.0001) >  fields(38,1) = 'TRAC38  ',
(PID.TID 0000.0001) >  fields(39,1) = 'TRAC39  ',
(PID.TID 0000.0001) >  fields(40,1) = 'TRAC40  ',
(PID.TID 0000.0001) >  fields(41,1) = 'TRAC41  ',
(PID.TID 0000.0001) >  fields(42,1) = 'TRAC42  ',
(PID.TID 0000.0001) >  fields(43,1) = 'TRAC43  ',
(PID.TID 0000.0001) >  fields(44,1) = 'TRAC44  ',
(PID.TID 0000.0001) >  fields(45,1) = 'TRAC45  ',
(PID.TID 0000.0001) >  fields(46,1) = 'TRAC46  ',
(PID.TID 0000.0001) >  fields(47,1) = 'TRAC47  ',
(PID.TID 0000.0001) >  fields(48,1) = 'TRAC48  ',
(PID.TID 0000.0001) >  fields(49,1) = 'TRAC49  ',
(PID.TID 0000.0001) >  fields(50,1) = 'TRAC50  ',
(PID.TID 0000.0001) >  fields(51,1) = 'TRAC51  ',
(PID.TID 0000.0001) >  fields(52,1) = 'TRAC52  ',
(PID.TID 0000.0001) >  fields(53,1) = 'TRAC53  ',
(PID.TID 0000.0001) >  fields(54,1) = 'TRAC54  ',
(PID.TID 0000.0001) >  fields(55,1) = 'TRAC55  ',
(PID.TID 0000.0001) >  fields(56,1) = 'TRAC56  ',
(PID.TID 0000.0001) >  fields(57,1) = 'TRAC57  ',
(PID.TID 0000.0001) >  fields(58,1) = 'TRAC58  ',
(PID.TID 0000.0001) >  fields(59,1) = 'TRAC59  ',
(PID.TID 0000.0001) >  fields(60,1) = 'TRAC60  ',
(PID.TID 0000.0001) >  fields(61,1) = 'TRAC61  ',
(PID.TID 0000.0001) >  fields(62,1) = 'TRAC62  ',
(PID.TID 0000.0001) >  fields(63,1) = 'TRAC63  ',
(PID.TID 0000.0001) >  fields(64,1) = 'TRAC64  ',
(PID.TID 0000.0001) >  fields(65,1) = 'TRAC65  ',
(PID.TID 0000.0001) >  fields(66,1) = 'TRAC66  ',
(PID.TID 0000.0001) >  fields(67,1) = 'TRAC67  ',
(PID.TID 0000.0001) >  fields(68,1) = 'TRAC68  ',
(PID.TID 0000.0001) >  fields(69,1) = 'TRAC69  ',
(PID.TID 0000.0001) >  fields(70,1) = 'TRAC70  ',
(PID.TID 0000.0001) >  fields(71,1) = 'TRAC71  ',
(PID.TID 0000.0001) >  fields(72,1) = 'TRAC72  ',
(PID.TID 0000.0001) >  fields(73,1) = 'TRAC73  ',
(PID.TID 0000.0001) >  fields(74,1) = 'TRAC74  ',
(PID.TID 0000.0001) >  fields(75,1) = 'TRAC75  ',
(PID.TID 0000.0001) >  fields(76,1) = 'TRAC76  ',
(PID.TID 0000.0001) >  fields(77,1) = 'TRAC77  ',
(PID.TID 0000.0001) >  fields(78,1) = 'TRAC78  ',
(PID.TID 0000.0001) >  fields(79,1) = 'TRAC79  ',
(PID.TID 0000.0001) >  fields(80,1) = 'TRAC80  ',
(PID.TID 0000.0001) >  fields(81,1) = 'TRAC81  ',
(PID.TID 0000.0001) >  fields(82,1) = 'TRAC82  ',
(PID.TID 0000.0001) >  fields(83,1) = 'TRAC83  ',
(PID.TID 0000.0001) >  fields(84,1) = 'TRAC84  ',
(PID.TID 0000.0001) >  fields(85,1) = 'TRAC85  ',
(PID.TID 0000.0001) >  fields(86,1) = 'TRAC86  ',
(PID.TID 0000.0001) >  fields(87,1) = 'TRAC87  ',
(PID.TID 0000.0001) >  fields(88,1) = 'TRAC88  ',
(PID.TID 0000.0001) >  fields(89,1) = 'TRAC89  ',
(PID.TID 0000.0001) >  fields(90,1) = 'TRAC90  ',
(PID.TID 0000.0001) >  fields(91,1) = 'TRAC91  ',
(PID.TID 0000.0001) >  fields(92,1) = 'TRAC92  ',
(PID.TID 0000.0001) >  fields(93,1) = 'TRAC93  ',
(PID.TID 0000.0001) >  fields(94,1) = 'TRAC94  ',
(PID.TID 0000.0001) >  fields(95,1) = 'TRAC95  ',
(PID.TID 0000.0001) >  fields(96,1) = 'TRAC96  ',
(PID.TID 0000.0001) >  fields(97,1) = 'TRAC97  ',
(PID.TID 0000.0001) >  filename( 1) = 'gud',
(PID.TID 0000.0001) >#
(PID.TID 0000.0001) > /
(PID.TID 0000.0001) >
(PID.TID 0000.0001) ># Parameter for Diagnostics of per level statistics:
(PID.TID 0000.0001) >#-----------------
(PID.TID 0000.0001) ># for each output-stream:
(PID.TID 0000.0001) >#  stat_fname(n) : prefix of the output file name (only 8.c long) for
(PID.TID 0000.0001) >#outp.stream n
(PID.TID 0000.0001) >#  stat_freq(n):< 0 : write snap-shot output every |stat_freq| seconds
(PID.TID 0000.0001) >#               > 0 : write time-average output every stat_freq seconds
(PID.TID 0000.0001) >#  stat_phase(n)    : write at time = stat_phase + multiple of |stat_freq|
(PID.TID 0000.0001) >#  stat_region(:,n) : list of "regions" (default: 1 region only=global)
(PID.TID 0000.0001) >#  stat_fields(:,n) : list of diagnostics fields (8.c) (see
(PID.TID 0000.0001) >#"available_diagnostics.log"
(PID.TID 0000.0001) >#                 file for the list of all available diag. in this particular
(PID.TID 0000.0001) >#config)
(PID.TID 0000.0001) >#-----------------
(PID.TID 0000.0001) > &DIAG_STATIS_PARMS
(PID.TID 0000.0001) > diagst_mnc=.FALSE.,
(PID.TID 0000.0001) >#     stat_freq(1:21)= 21*3600.,
(PID.TID 0000.0001) >#    stat_phase(1:21)= 21*0.,
(PID.TID 0000.0001) ># stat_fields(1,1)= 'TRAC01  '
(PID.TID 0000.0001) ># stat_fields(1,2)= 'TRAC02  '
(PID.TID 0000.0001) ># stat_fields(1,3)= 'TRAC03  '
(PID.TID 0000.0001) ># stat_fields(1,4)= 'TRAC04  '
(PID.TID 0000.0001) ># stat_fields(1,5)= 'TRAC05  '
(PID.TID 0000.0001) ># stat_fields(1,6)= 'TRAC06  '
(PID.TID 0000.0001) ># stat_fields(1,7)= 'TRAC07  '
(PID.TID 0000.0001) ># stat_fields(1,8)= 'TRAC08  '
(PID.TID 0000.0001) ># stat_fields(1,9)= 'TRAC09  '
(PID.TID 0000.0001) ># stat_fields(1,10)= 'TRAC10  '
(PID.TID 0000.0001) ># stat_fields(1,11)= 'TRAC11  '
(PID.TID 0000.0001) ># stat_fields(1,12)= 'TRAC12  '
(PID.TID 0000.0001) ># stat_fields(1,13)= 'TRAC13  '
(PID.TID 0000.0001) ># stat_fields(1,14)= 'TRAC14  '
(PID.TID 0000.0001) ># stat_fields(1,15)= 'TRAC15  '
(PID.TID 0000.0001) ># stat_fields(1,16)= 'TRAC16  '
(PID.TID 0000.0001) ># stat_fields(1,17)= 'TRAC17  '
(PID.TID 0000.0001) ># stat_fields(1,18)= 'TRAC18  '
(PID.TID 0000.0001) ># stat_fields(1,19)= 'TRAC19  '
(PID.TID 0000.0001) ># stat_fields(1,20)= 'TRAC20  '
(PID.TID 0000.0001) ># stat_fields(1,21)= 'TRAC21  '
(PID.TID 0000.0001) >#    stat_fname(1)= 'stats/DIC',
(PID.TID 0000.0001) >#    stat_fname(2)= 'stats/NH4',
(PID.TID 0000.0001) >#    stat_fname(3)= 'stats/NO2',
(PID.TID 0000.0001) >#    stat_fname(4)= 'stats/NO3',
(PID.TID 0000.0001) >#    stat_fname(5)= 'stats/PO4',
(PID.TID 0000.0001) >#    stat_fname(6)= 'stats/SiO2',
(PID.TID 0000.0001) >#    stat_fname(7)= 'stats/FeT',
(PID.TID 0000.0001) >#    stat_fname(8)= 'stats/DOC',
(PID.TID 0000.0001) >#    stat_fname(9)= 'stats/DON',
(PID.TID 0000.0001) >#    stat_fname(10)= 'stats/DOP',
(PID.TID 0000.0001) >#    stat_fname(11)= 'stats/DOFe',
(PID.TID 0000.0001) >#    stat_fname(12)= 'stats/POC',
(PID.TID 0000.0001) >#    stat_fname(13)= 'stats/PON',
(PID.TID 0000.0001) >#    stat_fname(14)= 'stats/POP',
(PID.TID 0000.0001) >#    stat_fname(15)= 'stats/POSi',
(PID.TID 0000.0001) >#    stat_fname(16)= 'stats/POFe',
(PID.TID 0000.0001) >#    stat_fname(17)= 'stats/PIC',
(PID.TID 0000.0001) >#    stat_fname(18)= 'stats/c1',
(PID.TID 0000.0001) >#    stat_fname(19)= 'stats/c2',
(PID.TID 0000.0001) >#    stat_fname(20)= 'stats/c3',
(PID.TID 0000.0001) >#    stat_fname(21)= 'stats/c4',
(PID.TID 0000.0001) > /
(PID.TID 0000.0001) 
(PID.TID 0000.0001) S/R DIAGNOSTICS_READPARMS, read namelist "diagnostics_list": start
(PID.TID 0000.0001) S/R DIAGNOSTICS_READPARMS, read namelist "diagnostics_list": OK
(PID.TID 0000.0001) S/R DIAGNOSTICS_READPARMS, read namelist "DIAG_STATIS_PARMS": start
(PID.TID 0000.0001) S/R DIAGNOSTICS_READPARMS, read namelist "DIAG_STATIS_PARMS": OK
(PID.TID 0000.0001)  DIAGNOSTICS_READPARMS: global parameter summary:
(PID.TID 0000.0001)  dumpAtLast = /* always write time-ave diags at the end */
(PID.TID 0000.0001)                   F
(PID.TID 0000.0001)     ;
(PID.TID 0000.0001)  diag_mnc =   /* write NetCDF output files */
(PID.TID 0000.0001)                   T
(PID.TID 0000.0001)     ;
(PID.TID 0000.0001)  useMissingValue = /* put MissingValue where mask = 0 */
(PID.TID 0000.0001)                   F
(PID.TID 0000.0001)     ;
(PID.TID 0000.0001)  diagCG_maxIters = /* max number of iters in diag_cg2d */
(PID.TID 0000.0001)                     100
(PID.TID 0000.0001)     ;
(PID.TID 0000.0001)  diagCG_resTarget = /* residual target for diag_cg2d */
(PID.TID 0000.0001)                 1.000000000000000E-05
(PID.TID 0000.0001)     ;
(PID.TID 0000.0001) -----------------------------------------------------
(PID.TID 0000.0001)  DIAGNOSTICS_READPARMS: active diagnostics summary:
(PID.TID 0000.0001) -----------------------------------------------------
(PID.TID 0000.0001) Creating Output Stream: gud
(PID.TID 0000.0001) Output Frequency:       1200.000000 ; Phase:           0.000000
(PID.TID 0000.0001)  Averaging Freq.:       1200.000000 , Phase:           0.000000 , Cycle:   1
(PID.TID 0000.0001)  missing value: -9.990000000000E+02
(PID.TID 0000.0001)  Levels:    will be set later
(PID.TID 0000.0001)  Fields:    TRAC01   TRAC02   TRAC03   TRAC04   TRAC05   TRAC06   TRAC07   TRAC08   TRAC09   TRAC10
(PID.TID 0000.0001)  Fields:    TRAC11   TRAC12   TRAC13   TRAC14   TRAC15   TRAC16   TRAC17   TRAC18   TRAC19   TRAC20
(PID.TID 0000.0001)  Fields:    TRAC21   TRAC22   TRAC23   TRAC24   TRAC25   TRAC26   TRAC27   TRAC28   TRAC29   TRAC30
(PID.TID 0000.0001)  Fields:    TRAC31   TRAC32   TRAC33   TRAC34   TRAC35   TRAC36   TRAC37   TRAC38   TRAC39   TRAC40
(PID.TID 0000.0001)  Fields:    TRAC41   TRAC42   TRAC43   TRAC44   TRAC45   TRAC46   TRAC47   TRAC48   TRAC49   TRAC50
(PID.TID 0000.0001)  Fields:    TRAC51   TRAC52   TRAC53   TRAC54   TRAC55   TRAC56   TRAC57   TRAC58   TRAC59   TRAC60
(PID.TID 0000.0001)  Fields:    TRAC61   TRAC62   TRAC63   TRAC64   TRAC65   TRAC66   TRAC67   TRAC68   TRAC69   TRAC70
(PID.TID 0000.0001)  Fields:    TRAC71   TRAC72   TRAC73   TRAC74   TRAC75   TRAC76   TRAC77   TRAC78   TRAC79   TRAC80
(PID.TID 0000.0001)  Fields:    TRAC81   TRAC82   TRAC83   TRAC84   TRAC85   TRAC86   TRAC87   TRAC88   TRAC89   TRAC90
(PID.TID 0000.0001)  Fields:    TRAC91   TRAC92   TRAC93   TRAC94   TRAC95   TRAC96   TRAC97
(PID.TID 0000.0001) -----------------------------------------------------
(PID.TID 0000.0001)  DIAGNOSTICS_READPARMS: statistics diags. summary:
(PID.TID 0000.0001) -----------------------------------------------------
(PID.TID 0000.0001) 
(PID.TID 0000.0001) SET_PARMS: done
(PID.TID 0000.0001) Enter INI_VERTICAL_GRID: setInterFDr=    T ; setCenterDr=    F
(PID.TID 0000.0001)  MDS_READ_FIELD: opening global file: LONC.bin
(PID.TID 0000.0001)  MDS_READ_FIELD: opening global file: LATC.bin
(PID.TID 0000.0001)  MDS_READ_FIELD: opening global file: DXF.bin
(PID.TID 0000.0001)  MDS_READ_FIELD: opening global file: DYF.bin
(PID.TID 0000.0001)  MDS_READ_FIELD: opening global file: RA.bin
(PID.TID 0000.0001)  MDS_READ_FIELD: opening global file: LONG.bin
(PID.TID 0000.0001)  MDS_READ_FIELD: opening global file: LATG.bin
(PID.TID 0000.0001)  MDS_READ_FIELD: opening global file: DXV.bin
(PID.TID 0000.0001)  MDS_READ_FIELD: opening global file: DYU.bin
(PID.TID 0000.0001)  MDS_READ_FIELD: opening global file: RAZ.bin
(PID.TID 0000.0001)  MDS_READ_FIELD: opening global file: DXC.bin
(PID.TID 0000.0001)  MDS_READ_FIELD: opening global file: DYC.bin
(PID.TID 0000.0001)  MDS_READ_FIELD: opening global file: RAW.bin
(PID.TID 0000.0001)  MDS_READ_FIELD: opening global file: RAS.bin
(PID.TID 0000.0001)  MDS_READ_FIELD: opening global file: DXG.bin
(PID.TID 0000.0001)  MDS_READ_FIELD: opening global file: DYG.bin
(PID.TID 0000.0001) %MON XC_max                       =   3.4323280334472656E+01
(PID.TID 0000.0001) %MON XC_min                       =   6.2812995910644531E+00
(PID.TID 0000.0001) %MON XC_mean                      =   1.8285267813948163E+01
(PID.TID 0000.0001) %MON XC_sd                        =   6.3900599945909500E+00
(PID.TID 0000.0001) %MON XG_max                       =   3.4363361358642578E+01
(PID.TID 0000.0001) %MON XG_min                       =   6.3874454498291016E+00
(PID.TID 0000.0001) %MON XG_mean                      =   1.8373648876945175E+01
(PID.TID 0000.0001) %MON XG_sd                        =   6.3700484752252073E+00
(PID.TID 0000.0001) %MON DXC_max                      =   2.2403076171875000E+04
(PID.TID 0000.0001) %MON DXC_min                      =   1.8505916015625000E+04
(PID.TID 0000.0001) %MON DXC_mean                     =   2.0203672926874886E+04
(PID.TID 0000.0001) %MON DXC_sd                       =   9.5458170268745039E+02
(PID.TID 0000.0001) %MON DXF_max                      =   2.2370343750000000E+04
(PID.TID 0000.0001) %MON DXF_min                      =   1.8493386718750000E+04
(PID.TID 0000.0001) %MON DXF_mean                     =   2.0182404881527549E+04
(PID.TID 0000.0001) %MON DXF_sd                       =   9.4946222069420321E+02
(PID.TID 0000.0001) %MON DXG_max                      =   2.2367550781250000E+04
(PID.TID 0000.0001) %MON DXG_min                      =   1.8487599609375000E+04
(PID.TID 0000.0001) %MON DXG_mean                     =   2.0177259786683913E+04
(PID.TID 0000.0001) %MON DXG_sd                       =   9.4896516606817841E+02
(PID.TID 0000.0001) %MON DXV_max                      =   2.2400273437500000E+04
(PID.TID 0000.0001) %MON DXV_min                      =   1.8500103515625000E+04
(PID.TID 0000.0001) %MON DXV_mean                     =   2.0198506532189440E+04
(PID.TID 0000.0001) %MON DXV_sd                       =   9.5408286863331898E+02
(PID.TID 0000.0001) %MON YC_max                       =   6.7494171142578125E+01
(PID.TID 0000.0001) %MON YC_min                       =   5.1496150970458984E+01
(PID.TID 0000.0001) %MON YC_mean                      =   5.9557142692699763E+01
(PID.TID 0000.0001) %MON YC_sd                        =   3.8956559034089806E+00
(PID.TID 0000.0001) %MON YG_max                       =   6.7396972656250000E+01
(PID.TID 0000.0001) %MON YG_min                       =   5.1380382537841797E+01
(PID.TID 0000.0001) %MON YG_mean                      =   5.9448751095442738E+01
(PID.TID 0000.0001) %MON YG_sd                        =   3.8981480636126395E+00
(PID.TID 0000.0001) %MON DYC_max                      =   1.7253792968750000E+04
(PID.TID 0000.0001) %MON DYC_min                      =   1.6167729492187500E+04
(PID.TID 0000.0001) %MON DYC_mean                     =   1.6590043869643181E+04
(PID.TID 0000.0001) %MON DYC_sd                       =   2.2883025615362985E+02
(PID.TID 0000.0001) %MON DYF_max                      =   1.7247535156250000E+04
(PID.TID 0000.0001) %MON DYF_min                      =   1.6166898437500000E+04
(PID.TID 0000.0001) %MON DYF_mean                     =   1.6587223710623399E+04
(PID.TID 0000.0001) %MON DYF_sd                       =   2.2779671061984945E+02
(PID.TID 0000.0001) %MON DYG_max                      =   1.7242103515625000E+04
(PID.TID 0000.0001) %MON DYG_min                      =   1.6164107421875000E+04
(PID.TID 0000.0001) %MON DYG_mean                     =   1.6582914334659687E+04
(PID.TID 0000.0001) %MON DYG_sd                       =   2.2730275857503943E+02
(PID.TID 0000.0001) %MON DYU_max                      =   1.7248339843750000E+04
(PID.TID 0000.0001) %MON DYU_min                      =   1.6164934570312500E+04
(PID.TID 0000.0001) %MON DYU_mean                     =   1.6585720694380198E+04
(PID.TID 0000.0001) %MON DYU_sd                       =   2.2833267244082208E+02
(PID.TID 0000.0001) %MON RA_max                       =   3.6165907200000000E+08
(PID.TID 0000.0001) %MON RA_min                       =   3.1759747200000000E+08
(PID.TID 0000.0001) %MON RA_mean                      =   3.3456872125730991E+08
(PID.TID 0000.0001) %MON RA_sd                        =   1.1547923169062844E+07
(PID.TID 0000.0001) %MON RAW_max                      =   3.6212576000000000E+08
(PID.TID 0000.0001) %MON RAW_min                      =   3.1777328000000000E+08
(PID.TID 0000.0001) %MON RAW_mean                     =   3.3483373194736838E+08
(PID.TID 0000.0001) %MON RAW_sd                       =   1.1630830944480687E+07
(PID.TID 0000.0001) %MON RAS_max                      =   3.6163251200000000E+08
(PID.TID 0000.0001) %MON RAS_min                      =   3.1760160000000000E+08
(PID.TID 0000.0001) %MON RAS_mean                     =   3.3453950318128651E+08
(PID.TID 0000.0001) %MON RAS_sd                       =   1.1525868078588968E+07
(PID.TID 0000.0001) %MON RAZ_max                      =   3.6209897600000000E+08
(PID.TID 0000.0001) %MON RAZ_min                      =   3.1777724800000000E+08
(PID.TID 0000.0001) %MON RAZ_mean                     =   3.3480396163742685E+08
(PID.TID 0000.0001) %MON RAZ_sd                       =   1.1608759740397641E+07
(PID.TID 0000.0001) %MON AngleCS_max                  =   5.5429527386919508E-01
(PID.TID 0000.0001) %MON AngleCS_min                  =  -9.9944725063758888E-01
(PID.TID 0000.0001) %MON AngleCS_mean                 =   2.7438028807017001E-01
(PID.TID 0000.0001) %MON AngleCS_sd                   =   1.8420475006331527E-01
(PID.TID 0000.0001) %MON AngleSN_max                  =   9.9515176606236022E-01
(PID.TID 0000.0001) %MON AngleSN_min                  =  -9.9999853122240556E-01
(PID.TID 0000.0001) %MON AngleSN_mean                 =   9.1101249395655759E-01
(PID.TID 0000.0001) %MON AngleSN_sd                   =   2.4665827257097037E-01
(PID.TID 0000.0001)  MDS_READ_FIELD: opening global file: ETOPO2_76x72_baltic_corr
(PID.TID 0000.0001) // =======================================================
(PID.TID 0000.0001) // Field Model R_low (ini_masks_etc)
(PID.TID 0000.0001) // CMIN =         -5.632600000000000E+02
(PID.TID 0000.0001) // CMAX =          0.000000000000000E+00
(PID.TID 0000.0001) // CINT =          2.086148148148148E+01
(PID.TID 0000.0001) // SYMBOLS (CMIN->CMAX): -abcdefghijklmnopqrstuvwxyz+
(PID.TID 0000.0001) //                  0.0: .
(PID.TID 0000.0001) // RANGE I (Lo:Hi:Step):(    -3:    80:     1)
(PID.TID 0000.0001) // RANGE J (Lo:Hi:Step):(    76:    -3:    -1)
(PID.TID 0000.0001) // RANGE K (Lo:Hi:Step):(   1:   1:   1)
(PID.TID 0000.0001) // =======================================================
(PID.TID 0000.0001) K =   1
(PID.TID 0000.0001) //                I=6       I=16      I=26      I=36      I=38      I=48      I=58      I=68      I=78
(PID.TID 0000.0001) // |--J--|321012345|789012345|789012345|789012345|789012567|901234567|901234567|901234567|901234567|90
(PID.TID 0000.0001) //     76 .............................................................+++............................
(PID.TID 0000.0001) //     75 ...............................................................+............................
(PID.TID 0000.0001) //     74 ...............................................................++...........................
(PID.TID 0000.0001) //     73 ............................................................................................
(PID.TID 0000.0001) //     72 ....zzyyyyyyzzzzzyyzzywrnl..............................................................zzyy
(PID.TID 0000.0001) //     71 ....zzyyyyyyzzzzzyyzzywrll..............................................................zzyy
(PID.TID 0000.0001) //     70 ....zzyyyzzzzzzzzzzzzywrlf..............................................................zzyy
(PID.TID 0000.0001) //     69 ....zzyyyzzzzzzzzzzzyyxtlfv.............................................................zzyy
(PID.TID 0000.0001) //     68 ....+zyyzzzzzzzzzzzzzzyupfp.............................................................+zyy
(PID.TID 0000.0001) //     67 ....+zyzzzzzzzzzzzz++zzxrffu............................................................+zyz
(PID.TID 0000.0001) //     66 ....+zyzzzzzzz++...+..zyvlciu...........................................................+zyz
(PID.TID 0000.0001) //     65 ....+zzzzz+zz+........zzyscbirz.........................................................+zzz
(PID.TID 0000.0001) //     64 ....zzzzz++++.........+zzvnb-fqz........................................................zzzz
(PID.TID 0000.0001) //     63 ....++zz+++............+zxui--lw........................................................++zz
(PID.TID 0000.0001) //     62 .....+z+................+zwqffpv+........................................................+z+
(PID.TID 0000.0001) //     61 .....+...................+xsllswz++......................................................+..
(PID.TID 0000.0001) //     60 ..........................xuprvyyz..........................................................
(PID.TID 0000.0001) //     59 ...............+.....++..+wurwyz+...........................................................
(PID.TID 0000.0001) //     58 ..........++...+++..++zz++vuuz..............................................................
(PID.TID 0000.0001) //     57 .........zz+...+++..++z+++yxz...............................................................
(PID.TID 0000.0001) //     56 .........zz+...+++++++zz++++................................................................
(PID.TID 0000.0001) //     55 .........+zzz+++++++++zzz+..................................................................
(PID.TID 0000.0001) //     54 .........+z+zz...++++zyyz...................................................................
(PID.TID 0000.0001) //     53 .......+z++.++...++++zyy...................................................................+
(PID.TID 0000.0001) //     52 .......+zz+.++...+++zyy....................................................................+
(PID.TID 0000.0001) //     51 ........+z+........zyy+.....................................................................
(PID.TID 0000.0001) //     50 .........zzz.+.+...zzz......................................................................
(PID.TID 0000.0001) //     49 .........zzzz+z+.+..........................................................................
(PID.TID 0000.0001) //     48 ..........+zzzz+++..........................................................................
(PID.TID 0000.0001) //     47 ..........+zzz+.............................................................................
(PID.TID 0000.0001) //     46 ..........+zz++.............................................................................
(PID.TID 0000.0001) //     45 ...........++zz+............................................................................
(PID.TID 0000.0001) //     44 ............+yyy............................................................................
(PID.TID 0000.0001) //     43 ..........++++yy..+...........................................+z............................
(PID.TID 0000.0001) //     42 .........++++ywzzzz+....................................++z++wtuvz+.........................
(PID.TID 0000.0001) //     41 ........+++zxwwzzyyz+..................................++zxyytnnpuuuz.......................
(PID.TID 0000.0001) //     40 ........+++yxxz.yxyzz.................................zxyywvwupnnppqwx+.....................
(PID.TID 0000.0001) //     39 ........++zyyxy.xxyyz.................................zwwwvvwzvsrpnnquyz....................
(PID.TID 0000.0001) //     38 ..........zzyxxwwwxy+.............+...................+zxwvvw+zywspnnswz+......zz++.........
(PID.TID 0000.0001) //     37 ..........zyywwvvwxyzz++.....+zz+zz+.........+.......+++zxwvvxz+zvpnnqvy+++z..zxxzz+........
(PID.TID 0000.0001) //     36 z+.........yxwwvvwwxyz+....+zyxwxxyz.........+.......+++zyvvvvwz+zuqqvz++zxxxywwwyzzz+......
(PID.TID 0000.0001) //     35 xz.........zxxwwvwwxyyzzyzz+zxvvvvwz++......+z......+z++zzvwwtuz++zyy++++yyyvvvwwxyxxz......
(PID.TID 0000.0001) //     34 xz+.........yxxxwxxxyyyxxwxxyxwuuuvuvz.....yyz.....yyz++zzwwutty++++....+yyywwwwwxxxxz+.....
(PID.TID 0000.0001) //     33 zz+.........+zyyxwyyyyzyxwwwwwxwwwvssy+++++yy.+++++yy.++zzyxwuuy+++.....++++yxxxxxxyzz+.....
(PID.TID 0000.0001) //     40 ........+++yxxz.yxyzz.................................zxyywvwupnnppqwx+.....................
(PID.TID 0000.0001) //     39 ........++zyyxy.xxyyz.................................zwwwvvwzvsrpnnquyz....................
(PID.TID 0000.0001) //     38 ..........zzyxxwwwxy+.............+...................+zxwvvw+zywspnnswz+......zz++.........
(PID.TID 0000.0001) //     37 ..........zyywwvvwxyzz++.....+zz+zz+.........+.......+++zxwvvxz+zvpnnqvy+++z..zxxzz+........
(PID.TID 0000.0001) //     36 z+.........yxwwvvwwxyz+....+zyxwxxyz.........+.......+++zyvvvvwz+zuqqvz++zxxxywwwyzzz+......
(PID.TID 0000.0001) //     35 xz.........zxxwwvwwxyyzzyzz+zxvvvvwz++......+z......+z++zzvwwtuz++zyy++++yyyvvvwwxyxxz......
(PID.TID 0000.0001) //     34 xz+.........yxxxwxxxyyyxxwxxyxwuuuvuvz.....yyz.....yyz++zzwwutty++++....+yyywwwwwxxxxz+.....
(PID.TID 0000.0001) //     33 zz+.........+zyyxwyyyyzyxwwwwwxwwwvssy+++++yy.+++++yy.++zzyxwuuy+++.....++++yxxxxxxyzz+.....
(PID.TID 0000.0001) //     32 z++...........yyywxzyyzzyxxxzz+yxxvtswyzz+zyy.yzz+zyy..+++zzzyvz++..........+zyyxxzzz++.....
(PID.TID 0000.0001) //     31 +++...........zyywxzyyyyyyz+....zwvvwvwxyzzyz.wxyzzyz..+++++++y+.............+zzzzz++++.....
(PID.TID 0000.0001) //     30 +++............zyxwxxxxyzzz+....+xyzyvvwxyzy+.vwxyzy+.+++++++.....................+.+++.....
(PID.TID 0000.0001) //     29 ...............+yxwxxxxyzzzyyzzz+zxwwvvvxyzz++vvxyzz++++++..................................
(PID.TID 0000.0001) //     28 ................zywwwwvvwxwuvvxxxwtvvvuuwxzz++uuwxzz+++.....................................
(PID.TID 0000.0001) //     27 ................+ywwvvuvvutsstvwvttvvvuuvwyz++uuvwyz++++....................................
(PID.TID 0000.0001) //     26 ................+ywwwvuuuuutstuuutuwvvvuuwwy++vuuwwy++......................................
(PID.TID 0000.0001) //     25 ................zwwwwwwvuuttsrrrtuvwwvwvuuvx++wvuuvx+++.....................................
(PID.TID 0000.0001) //     24 ...............yywwwwwxxwvutssssuvwwxwwwwuvyz+wwwuvyz++.....................................
(PID.TID 0000.0001) //     23 ..............+xwwwwwwwxxwvuuvvwxxwxyxxxxwvwy+xxxwvwy++.....................................
(PID.TID 0000.0001) //     22 ..............+xwwwwwwwxyyxwwwxxxyxxyzzyzzxwxzzyzzxwxz+.....................................
(PID.TID 0000.0001) //     21 ...............yxyyxxxxxyyyyxyyyyyyyz..yz+ywwy.yz+ywwy+.....................................
(PID.TID 0000.0001) //     20 ................z+.yyyxyyz+...+..+zz+...+.+xwx..+.+xwxz.....................................
(PID.TID 0000.0001) //     19 ...................zzzyyz.........+zz+..+.+zxx..+.+zxxy+....................................
(PID.TID 0000.0001) //     18 ...................++zz+...........zz+...+++zx...+++zxxz+...................................
(PID.TID 0000.0001) //     17 ...................+++.............zzzz+++...yz+++...yxyz...................................
(PID.TID 0000.0001) //     16 ...................++.............zyzyyz+.....yz+.....zyz++.................................
(PID.TID 0000.0001) //     15 ..................................yyzyyz......yz.......zzz+.................................
(PID.TID 0000.0001) //     14 .................................zyyyyz+......z+........++++................................
(PID.TID 0000.0001) //     13 .................................yyyyyzz+.....zz+.......+++++...............................
(PID.TID 0000.0001) //     12 .................................yyyz+...................+++++..............................
(PID.TID 0000.0001) //     11 .................................zz+.....................+++++..............................
(PID.TID 0000.0001) //     10 .........................................................++++++.............................
(PID.TID 0000.0001) //      9 .........................................................+z++++.............................
(PID.TID 0000.0001) //      8 .........................................................+zyy+++............................
(PID.TID 0000.0001) //      7 ..........................................................zyy++++...........................
(PID.TID 0000.0001) //      6 ..........................................................z+.+++............................
(PID.TID 0000.0001) //      5 ............................................................++++............................
(PID.TID 0000.0001) //      4 .............................................................+++............................
(PID.TID 0000.0001) //      3 ...............................................................+............................
(PID.TID 0000.0001) //      2 ...............................................................++...........................
(PID.TID 0000.0001) //      1 ............................................................................................
(PID.TID 0000.0001) //      0 ....zzyyyyyyzzzzzyyzzywrnl..............................................................zzyy
(PID.TID 0000.0001) //     -1 ....zzyyyyyyzzzzzyyzzywrll..............................................................zzyy
(PID.TID 0000.0001) //     -2 ....zzyyyzzzzzzzzzzzzywrlf..............................................................zzyy
(PID.TID 0000.0001) //     -3 ....zzyyyzzzzzzzzzzzyyxtlfv.............................................................zzyy
(PID.TID 0000.0001) // =======================================================
(PID.TID 0000.0001) // END OF FIELD                                          =
(PID.TID 0000.0001) // =======================================================
(PID.TID 0000.0001) 
(PID.TID 0000.0001) // =======================================================
(PID.TID 0000.0001) // Field Model Ro_surf (ini_masks_etc)
(PID.TID 0000.0001) // CMIN =         -8.526512829121202E-14
(PID.TID 0000.0001) // CMAX =          2.842170943040401E-14
(PID.TID 0000.0001) // CINT =          4.210623619319112E-15
(PID.TID 0000.0001) // SYMBOLS (CMIN->CMAX): -abcdefghijklmnopqrstuvwxyz+
(PID.TID 0000.0001) //                  0.0: .
(PID.TID 0000.0001) // RANGE I (Lo:Hi:Step):(    -3:    80:     1)
(PID.TID 0000.0001) // RANGE J (Lo:Hi:Step):(    76:    -3:    -1)
(PID.TID 0000.0001) // RANGE K (Lo:Hi:Step):(   1:   1:   1)
(PID.TID 0000.0001) // =======================================================
(PID.TID 0000.0001) K =   1
(PID.TID 0000.0001) //                I=6       I=16      I=26      I=36      I=38      I=48      I=58      I=68      I=78
(PID.TID 0000.0001) // |--J--|321012345|789012345|789012345|789012345|789012567|901234567|901234567|901234567|901234567|90
(PID.TID 0000.0001) //     76 ............................................................................................
(PID.TID 0000.0001) //     75 ............................................................................................
(PID.TID 0000.0001) //     74 ............................................................................................
(PID.TID 0000.0001) //     73 ............................................................................................
(PID.TID 0000.0001) //     72 ......................xn++..................................................................
(PID.TID 0000.0001) //     71 ......................xn++..................................................................
(PID.TID 0000.0001) //     70 ......................xn+n..................................................................
(PID.TID 0000.0001) //     69 ........................+n..................................................................
(PID.TID 0000.0001) //     68 ........................gng.................................................................
(PID.TID 0000.0001) //     67 ........................nnn.................................................................
(PID.TID 0000.0001) //     66 .........................+-+................................................................
(PID.TID 0000.0001) //     65 .........................n-n+n..............................................................
(PID.TID 0000.0001) //     64 ..........................+nnnn.............................................................
(PID.TID 0000.0001) //     63 ...........................+nn+x............................................................
(PID.TID 0000.0001) //     62 ..........................xnnng.............................................................
(PID.TID 0000.0001) //     61 ...........................n++nx............................................................
(PID.TID 0000.0001) //     60 ............................gn..............................................................
(PID.TID 0000.0001) //     59 ..........................x.nx..............................................................
(PID.TID 0000.0001) //     58 ............................................................................................
(PID.TID 0000.0001) //     57 ............................................................................................
(PID.TID 0000.0001) //     56 ............................................................................................
(PID.TID 0000.0001) //     55 ............................................................................................
(PID.TID 0000.0001) //     54 ............................................................................................
(PID.TID 0000.0001) //     53 ............................................................................................
(PID.TID 0000.0001) //     52 ............................................................................................
(PID.TID 0000.0001) //     51 ............................................................................................
(PID.TID 0000.0001) //     50 ............................................................................................
(PID.TID 0000.0001) //     49 ............................................................................................
(PID.TID 0000.0001) //     48 ............................................................................................
(PID.TID 0000.0001) //     47 ............................................................................................
(PID.TID 0000.0001) //     46 ............................................................................................
(PID.TID 0000.0001) //     45 ............................................................................................
(PID.TID 0000.0001) //     44 ............................................................................................
(PID.TID 0000.0001) //     43 ............................................................................................
(PID.TID 0000.0001) //     42 ..............x..............................................x..............................
(PID.TID 0000.0001) //     41 .............xx...............................................++g...........................
(PID.TID 0000.0001) //     40 ..........................................................x.x.g++ggnx.......................
(PID.TID 0000.0001) //     39 .......................................................xxx..x..nng++n.......................
(PID.TID 0000.0001) //     38 ...............xxx.......................................x..x...xng++nx.....................
(PID.TID 0000.0001) //     37 .............xx..x........................................x.......g++n......................
(PID.TID 0000.0001) //     36 .............xx..xx............x..............................x....nn.........xxx...........
(PID.TID 0000.0001) //     35 ..............xx.xx...............x........................xx..................xx...........
(PID.TID 0000.0001) //     34 ................x........x....x...........................xx................xxxxx...........
(PID.TID 0000.0001) //     33 .................x.......xxxxx.xxx.nn.......................x...............................
(PID.TID 0000.0001) //     40 ..........................................................x.x.g++ggnx.......................
(PID.TID 0000.0001) //     39 .......................................................xxx..x..nng++n.......................
(PID.TID 0000.0001) //     38 ...............xxx.......................................x..x...xng++nx.....................
(PID.TID 0000.0001) //     37 .............xx..x........................................x.......g++n......................
(PID.TID 0000.0001) //     36 .............xx..xx............x..............................x....nn.........xxx...........
(PID.TID 0000.0001) //     35 ..............xx.xx...............x........................xx..................xx...........
(PID.TID 0000.0001) //     34 ................x........x....x...........................xx................xxxxx...........
(PID.TID 0000.0001) //     33 .................x.......xxxxx.xxx.nn.......................x...............................
(PID.TID 0000.0001) //     32 .................x..................nx......................................................
(PID.TID 0000.0001) //     31 .................x...............x..x.x.......x.............................................
(PID.TID 0000.0001) //     30 ..................x....................x.......x............................................
(PID.TID 0000.0001) //     29 ..................x................xx.......................................................
(PID.TID 0000.0001) //     28 ..................xxxx..x.x......x......x.......x...........................................
(PID.TID 0000.0001) //     27 ..................xx.......nn..x.........x.......x..........................................
(PID.TID 0000.0001) //     26 ..................xxx.......n......x.....xx......xx.........................................
(PID.TID 0000.0001) //     25 .................xxxxxx.....nnnn...xx.x.......x.............................................
(PID.TID 0000.0001) //     24 .................xxxxx..x...nnnn..xx.xxxx.....xxx...........................................
(PID.TID 0000.0001) //     23 ................xxxxxxx..x.....x..x......x.x.....x.x........................................
(PID.TID 0000.0001) //     22 ................xxxxxxx....xxx.............x.......x........................................
(PID.TID 0000.0001) //     21 ...........................................xx......xx.......................................
(PID.TID 0000.0001) //     20 ............................................x.......x.......................................
(PID.TID 0000.0001) //     19 ............................................................................................
(PID.TID 0000.0001) //     18 ............................................................................................
(PID.TID 0000.0001) //     17 ............................................................................................
(PID.TID 0000.0001) //     16 ............................................................................................
(PID.TID 0000.0001) //     15 ............................................................................................
(PID.TID 0000.0001) //     14 ............................................................................................
(PID.TID 0000.0001) //     13 ............................................................................................
(PID.TID 0000.0001) //     12 ............................................................................................
(PID.TID 0000.0001) //     11 ............................................................................................
(PID.TID 0000.0001) //     10 ............................................................................................
(PID.TID 0000.0001) //      9 ............................................................................................
(PID.TID 0000.0001) //      8 ............................................................................................
(PID.TID 0000.0001) //      7 ............................................................................................
(PID.TID 0000.0001) //      6 ............................................................................................
(PID.TID 0000.0001) //      5 ............................................................................................
(PID.TID 0000.0001) //      4 ............................................................................................
(PID.TID 0000.0001) //      3 ............................................................................................
(PID.TID 0000.0001) //      2 ............................................................................................
(PID.TID 0000.0001) //      1 ............................................................................................
(PID.TID 0000.0001) //      0 ......................xn++..................................................................
(PID.TID 0000.0001) //     -1 ......................xn++..................................................................
(PID.TID 0000.0001) //     -2 ......................xn+n..................................................................
(PID.TID 0000.0001) //     -3 ........................+n..................................................................
(PID.TID 0000.0001) // =======================================================
(PID.TID 0000.0001) // END OF FIELD                                          =
(PID.TID 0000.0001) // =======================================================
(PID.TID 0000.0001) 
(PID.TID 0000.0001) // =======================================================
(PID.TID 0000.0001) // Field hFacC at iteration          0
(PID.TID 0000.0001) // CMIN =          0.000000000000000E+00
(PID.TID 0000.0001) // CMAX =          1.000000000000000E+00
(PID.TID 0000.0001) // CINT =          3.703703703703703E-02
(PID.TID 0000.0001) // SYMBOLS (CMIN->CMAX): -abcdefghijklmnopqrstuvwxyz+
(PID.TID 0000.0001) //                  0.0: .
(PID.TID 0000.0001) // RANGE I (Lo:Hi:Step):(    -3:    80:     1)
(PID.TID 0000.0001) // RANGE J (Lo:Hi:Step):(    76:    -3:    -1)
(PID.TID 0000.0001) // RANGE K (Lo:Hi:Step):(   1:   1:   1)
(PID.TID 0000.0001) // =======================================================
(PID.TID 0000.0001) K =   1
(PID.TID 0000.0001) //                I=6       I=16      I=26      I=36      I=38      I=48      I=58      I=68      I=78
(PID.TID 0000.0001) // |--J--|321012345|789012345|789012345|789012345|789012567|901234567|901234567|901234567|901234567|90
(PID.TID 0000.0001) //     76 .............................................................+++............................
(PID.TID 0000.0001) //     75 ...............................................................+............................
(PID.TID 0000.0001) //     74 ...............................................................++...........................
(PID.TID 0000.0001) //     73 ............................................................................................
(PID.TID 0000.0001) //     72 ....++++++++++++++++++++++..............................................................++++
(PID.TID 0000.0001) //     71 ....++++++++++++++++++++++..............................................................++++
(PID.TID 0000.0001) //     70 ....++++++++++++++++++++++..............................................................++++
(PID.TID 0000.0001) //     69 ....+++++++++++++++++++++++.............................................................++++
(PID.TID 0000.0001) //     68 ....+++++++++++++++++++++++.............................................................++++
(PID.TID 0000.0001) //     67 ....++++++++++++++++++++++++............................................................++++
(PID.TID 0000.0001) //     66 ....++++++++++++...+..+++++++...........................................................++++
(PID.TID 0000.0001) //     65 ....++++++++++........+++++++++.........................................................++++
(PID.TID 0000.0001) //     64 ....+++++++++.........++++++++++........................................................++++
(PID.TID 0000.0001) //     63 ....+++++++............+++++++++........................................................++++
(PID.TID 0000.0001) //     62 .....+++................+++++++++........................................................+++
(PID.TID 0000.0001) //     61 .....+...................++++++++++......................................................+..
(PID.TID 0000.0001) //     60 ..........................++++++++..........................................................
(PID.TID 0000.0001) //     59 ...............+.....++..++++++++...........................................................
(PID.TID 0000.0001) //     58 ..........++...+++..++++++++++..............................................................
(PID.TID 0000.0001) //     57 .........+++...+++..+++++++++...............................................................
(PID.TID 0000.0001) //     56 .........+++...+++++++++++++................................................................
(PID.TID 0000.0001) //     55 .........+++++++++++++++++..................................................................
(PID.TID 0000.0001) //     54 .........+++++...++++++++...................................................................
(PID.TID 0000.0001) //     53 .......++++.++...+++++++...................................................................+
(PID.TID 0000.0001) //     52 .......++++.++...++++++....................................................................+
(PID.TID 0000.0001) //     51 ........+++........++++.....................................................................
(PID.TID 0000.0001) //     50 .........+++.+.+...+++......................................................................
(PID.TID 0000.0001) //     49 .........+++++++.+..........................................................................
(PID.TID 0000.0001) //     48 ..........++++++++..........................................................................
(PID.TID 0000.0001) //     47 ..........+++++.............................................................................
(PID.TID 0000.0001) //     46 ..........+++++.............................................................................
(PID.TID 0000.0001) //     45 ...........+++++............................................................................
(PID.TID 0000.0001) //     44 ............++++............................................................................
(PID.TID 0000.0001) //     43 ..........++++++..+...........................................++............................
(PID.TID 0000.0001) //     42 .........+++++++++++....................................+++++++++++.........................
(PID.TID 0000.0001) //     41 ........+++++++++++++..................................++++++++++++++.......................
(PID.TID 0000.0001) //     40 ........+++++++.+++++.................................+++++++++++++++++.....................
(PID.TID 0000.0001) //     39 ........+++++++.+++++.................................++++++++++++++++++....................
(PID.TID 0000.0001) //     38 ..........+++++++++++.............+...................+++++++++++++++++++......++++.........
(PID.TID 0000.0001) //     37 ..........++++++++++++++.....+++++++.........+.......+++++++++++++++++++++++..++++++........
(PID.TID 0000.0001) //     36 ++.........++++++++++++....+++++++++.........+.......+++++++++++++++++++++++++++++++++......
(PID.TID 0000.0001) //     35 ++.........+++++++++++++++++++++++++++......++......++++++++++++++++++++++++++++++++++......
(PID.TID 0000.0001) //     34 +++.........++++++++++++++++++++++++++.....+++.....+++++++++++++++++....+++++++++++++++.....
(PID.TID 0000.0001) //     33 +++.........+++++++++++++++++++++++++++++++++.+++++++.+++++++++++++.....+++++++++++++++.....
(PID.TID 0000.0001) //     40 ........+++++++.+++++.................................+++++++++++++++++.....................
(PID.TID 0000.0001) //     39 ........+++++++.+++++.................................++++++++++++++++++....................
(PID.TID 0000.0001) //     38 ..........+++++++++++.............+...................+++++++++++++++++++......++++.........
(PID.TID 0000.0001) //     37 ..........++++++++++++++.....+++++++.........+.......+++++++++++++++++++++++..++++++........
(PID.TID 0000.0001) //     36 ++.........++++++++++++....+++++++++.........+.......+++++++++++++++++++++++++++++++++......
(PID.TID 0000.0001) //     35 ++.........+++++++++++++++++++++++++++......++......++++++++++++++++++++++++++++++++++......
(PID.TID 0000.0001) //     34 +++.........++++++++++++++++++++++++++.....+++.....+++++++++++++++++....+++++++++++++++.....
(PID.TID 0000.0001) //     33 +++.........+++++++++++++++++++++++++++++++++.+++++++.+++++++++++++.....+++++++++++++++.....
(PID.TID 0000.0001) //     32 +++...........+++++++++++++++++++++++++++++++.+++++++..+++++++++++..........+++++++++++.....
(PID.TID 0000.0001) //     31 +++...........++++++++++++++....+++++++++++++.+++++++..+++++++++.............++++++++++.....
(PID.TID 0000.0001) //     30 +++............+++++++++++++....+++++++++++++.+++++++.+++++++.....................+.+++.....
(PID.TID 0000.0001) //     29 ...............+++++++++++++++++++++++++++++++++++++++++++..................................
(PID.TID 0000.0001) //     28 ................+++++++++++++++++++++++++++++++++++++++.....................................
(PID.TID 0000.0001) //     27 ................++++++++++++++++++++++++++++++++++++++++....................................
(PID.TID 0000.0001) //     26 ................++++++++++++++++++++++++++++++++++++++......................................
(PID.TID 0000.0001) //     25 ................+++++++++++++++++++++++++++++++++++++++.....................................
(PID.TID 0000.0001) //     24 ...............++++++++++++++++++++++++++++++++++++++++.....................................
(PID.TID 0000.0001) //     23 ..............+++++++++++++++++++++++++++++++++++++++++.....................................
(PID.TID 0000.0001) //     22 ..............+++++++++++++++++++++++++++++++++++++++++.....................................
(PID.TID 0000.0001) //     21 ...............++++++++++++++++++++++..+++++++.++++++++.....................................
(PID.TID 0000.0001) //     20 ................++.++++++++...+..++++...+.++++..+.+++++.....................................
(PID.TID 0000.0001) //     19 ...................++++++.........++++..+.++++..+.++++++....................................
(PID.TID 0000.0001) //     18 ...................+++++...........+++...+++++...++++++++...................................
(PID.TID 0000.0001) //     17 ...................+++.............+++++++...+++++...++++...................................
(PID.TID 0000.0001) //     16 ...................++.............+++++++.....+++.....+++++.................................
(PID.TID 0000.0001) //     15 ..................................++++++......++.......++++.................................
(PID.TID 0000.0001) //     14 .................................+++++++......++........++++................................
(PID.TID 0000.0001) //     13 .................................++++++++.....+++.......+++++...............................
(PID.TID 0000.0001) //     12 .................................+++++...................+++++..............................
(PID.TID 0000.0001) //     11 .................................+++.....................+++++..............................
(PID.TID 0000.0001) //     10 .........................................................++++++.............................
(PID.TID 0000.0001) //      9 .........................................................++++++.............................
(PID.TID 0000.0001) //      8 .........................................................+++++++............................
(PID.TID 0000.0001) //      7 ..........................................................+++++++...........................
(PID.TID 0000.0001) //      6 ..........................................................++.+++............................
(PID.TID 0000.0001) //      5 ............................................................++++............................
(PID.TID 0000.0001) //      4 .............................................................+++............................
(PID.TID 0000.0001) //      3 ...............................................................+............................
(PID.TID 0000.0001) //      2 ...............................................................++...........................
(PID.TID 0000.0001) //      1 ............................................................................................
(PID.TID 0000.0001) //      0 ....++++++++++++++++++++++..............................................................++++
(PID.TID 0000.0001) //     -1 ....++++++++++++++++++++++..............................................................++++
(PID.TID 0000.0001) //     -2 ....++++++++++++++++++++++..............................................................++++
(PID.TID 0000.0001) //     -3 ....+++++++++++++++++++++++.............................................................++++
(PID.TID 0000.0001) // =======================================================
(PID.TID 0000.0001) // END OF FIELD                                          =
(PID.TID 0000.0001) // =======================================================
(PID.TID 0000.0001) 
(PID.TID 0000.0001) // =======================================================
(PID.TID 0000.0001) // Field hFacW at iteration          0
(PID.TID 0000.0001) // CMIN =          0.000000000000000E+00
(PID.TID 0000.0001) // CMAX =          1.000000000000000E+00
(PID.TID 0000.0001) // CINT =          3.703703703703703E-02
(PID.TID 0000.0001) // SYMBOLS (CMIN->CMAX): -abcdefghijklmnopqrstuvwxyz+
(PID.TID 0000.0001) //                  0.0: .
(PID.TID 0000.0001) // RANGE I (Lo:Hi:Step):(    -3:    80:     1)
(PID.TID 0000.0001) // RANGE J (Lo:Hi:Step):(    76:    -3:    -1)
(PID.TID 0000.0001) // RANGE K (Lo:Hi:Step):(   1:   1:   1)
(PID.TID 0000.0001) // =======================================================
(PID.TID 0000.0001) K =   1
(PID.TID 0000.0001) //                I=6       I=16      I=26      I=36      I=38      I=48      I=58      I=68      I=78
(PID.TID 0000.0001) // |--J--|321012345|789012345|789012345|789012345|789012567|901234567|901234567|901234567|901234567|90
(PID.TID 0000.0001) //     76 ..............................................................++............................
(PID.TID 0000.0001) //     75 ............................................................................................
(PID.TID 0000.0001) //     74 ................................................................+...........................
(PID.TID 0000.0001) //     73 ............................................................................................
(PID.TID 0000.0001) //     72 .....+++++++++++++++++++++...............................................................+++
(PID.TID 0000.0001) //     71 .....+++++++++++++++++++++...............................................................+++
(PID.TID 0000.0001) //     70 .....+++++++++++++++++++++...............................................................+++
(PID.TID 0000.0001) //     69 .....++++++++++++++++++++++..............................................................+++
(PID.TID 0000.0001) //     68 .....++++++++++++++++++++++..............................................................+++
(PID.TID 0000.0001) //     67 .....+++++++++++++++++++++++.............................................................+++
(PID.TID 0000.0001) //     66 .....+++++++++++.......++++++............................................................+++
(PID.TID 0000.0001) //     65 .....+++++++++.........++++++++..........................................................+++
(PID.TID 0000.0001) //     64 .....++++++++..........+++++++++.........................................................+++
(PID.TID 0000.0001) //     63 .....++++++.............++++++++.........................................................+++
(PID.TID 0000.0001) //     62 ......++.................++++++++.........................................................++
(PID.TID 0000.0001) //     61 ..........................+++++++++.........................................................
(PID.TID 0000.0001) //     60 ...........................+++++++..........................................................
(PID.TID 0000.0001) //     59 ......................+...+++++++...........................................................
(PID.TID 0000.0001) //     58 ...........+....++...+++++++++..............................................................
(PID.TID 0000.0001) //     57 ..........++....++...++++++++...............................................................
(PID.TID 0000.0001) //     56 ..........++....++++++++++++................................................................
(PID.TID 0000.0001) //     55 ..........++++++++++++++++..................................................................
(PID.TID 0000.0001) //     54 ..........++++....+++++++...................................................................
(PID.TID 0000.0001) //     53 ........+++..+....++++++....................................................................
(PID.TID 0000.0001) //     52 ........+++..+....+++++.....................................................................
(PID.TID 0000.0001) //     51 .........++.........+++.....................................................................
(PID.TID 0000.0001) //     50 ..........++........++......................................................................
(PID.TID 0000.0001) //     49 ..........++++++............................................................................
(PID.TID 0000.0001) //     48 ...........+++++++..........................................................................
(PID.TID 0000.0001) //     47 ...........++++.............................................................................
(PID.TID 0000.0001) //     46 ...........++++.............................................................................
(PID.TID 0000.0001) //     45 ............++++............................................................................
(PID.TID 0000.0001) //     44 .............+++............................................................................
(PID.TID 0000.0001) //     43 ...........+++++...............................................+............................
(PID.TID 0000.0001) //     42 ..........++++++++++.....................................++++++++++.........................
(PID.TID 0000.0001) //     41 .........++++++++++++...................................+++++++++++++.......................
(PID.TID 0000.0001) //     40 .........++++++..++++..................................++++++++++++++++.....................
(PID.TID 0000.0001) //     39 .........++++++..++++..................................+++++++++++++++++....................
(PID.TID 0000.0001) //     38 ...........++++++++++..................................++++++++++++++++++.......+++.........
(PID.TID 0000.0001) //     37 ...........+++++++++++++......++++++..................++++++++++++++++++++++...+++++........
(PID.TID 0000.0001) //     36 ++..........+++++++++++.....++++++++..................++++++++++++++++++++++++++++++++......
(PID.TID 0000.0001) //     35 ++..........++++++++++++++++++++++++++.......+.......+++++++++++++++++++++++++++++++++......
(PID.TID 0000.0001) //     34 +++..........+++++++++++++++++++++++++......++......++++++++++++++++.....++++++++++++++.....
(PID.TID 0000.0001) //     33 +++..........++++++++++++++++++++++++++++++++.+++++++..++++++++++++......++++++++++++++.....
(PID.TID 0000.0001) //     40 .........++++++..++++..................................++++++++++++++++.....................
(PID.TID 0000.0001) //     39 .........++++++..++++..................................+++++++++++++++++....................
(PID.TID 0000.0001) //     38 ...........++++++++++..................................++++++++++++++++++.......+++.........
(PID.TID 0000.0001) //     37 ...........+++++++++++++......++++++..................++++++++++++++++++++++...+++++........
(PID.TID 0000.0001) //     36 ++..........+++++++++++.....++++++++..................++++++++++++++++++++++++++++++++......
(PID.TID 0000.0001) //     35 ++..........++++++++++++++++++++++++++.......+.......+++++++++++++++++++++++++++++++++......
(PID.TID 0000.0001) //     34 +++..........+++++++++++++++++++++++++......++......++++++++++++++++.....++++++++++++++.....
(PID.TID 0000.0001) //     33 +++..........++++++++++++++++++++++++++++++++.+++++++..++++++++++++......++++++++++++++.....
(PID.TID 0000.0001) //     32 +++............++++++++++++++++++++++++++++++.+++++++...++++++++++...........++++++++++.....
(PID.TID 0000.0001) //     31 +++............+++++++++++++.....++++++++++++.+++++++...++++++++..............+++++++++.....
(PID.TID 0000.0001) //     30 .++.............++++++++++++.....++++++++++++.+++++++..++++++........................++.....
(PID.TID 0000.0001) //     29 ................++++++++++++++++++++++++++++++++++++++++++..................................
(PID.TID 0000.0001) //     28 .................++++++++++++++++++++++++++++++++++++++.....................................
(PID.TID 0000.0001) //     27 .................+++++++++++++++++++++++++++++++++++++++....................................
(PID.TID 0000.0001) //     26 .................+++++++++++++++++++++++++++++++++++++......................................
(PID.TID 0000.0001) //     25 .................++++++++++++++++++++++++++++++++++++++.....................................
(PID.TID 0000.0001) //     24 ................+++++++++++++++++++++++++++++++++++++++.....................................
(PID.TID 0000.0001) //     23 ...............++++++++++++++++++++++++++++++++++++++++.....................................
(PID.TID 0000.0001) //     22 ...............++++++++++++++++++++++++++++++++++++++++.....................................
(PID.TID 0000.0001) //     21 ................+++++++++++++++++++++...++++++..+++++++.....................................
(PID.TID 0000.0001) //     20 .................+..+++++++.......+++......+++.....++++.....................................
(PID.TID 0000.0001) //     19 ....................+++++..........+++.....+++.....+++++....................................
(PID.TID 0000.0001) //     18 ....................++++............++....++++....+++++++...................................
(PID.TID 0000.0001) //     17 ....................++..............++++++....++++....+++...................................
(PID.TID 0000.0001) //     16 ....................+..............++++++.....+++......++++.................................
(PID.TID 0000.0001) //     15 ...................................+++++......++........+++.................................
(PID.TID 0000.0001) //     14 ..................................++++++......++.........+++................................
(PID.TID 0000.0001) //     13 ..................................+++++++.....+++........++++...............................
(PID.TID 0000.0001) //     12 ..................................++++....................++++..............................
(PID.TID 0000.0001) //     11 ..................................++......................++++..............................
(PID.TID 0000.0001) //     10 ..........................................................+++++.............................
(PID.TID 0000.0001) //      9 ..........................................................+++++.............................
(PID.TID 0000.0001) //      8 ..........................................................++++++............................
(PID.TID 0000.0001) //      7 ...........................................................++++++...........................
(PID.TID 0000.0001) //      6 ...........................................................+..++............................
(PID.TID 0000.0001) //      5 .............................................................+++............................
(PID.TID 0000.0001) //      4 ..............................................................++............................
(PID.TID 0000.0001) //      3 ............................................................................................
(PID.TID 0000.0001) //      2 ................................................................+...........................
(PID.TID 0000.0001) //      1 ............................................................................................
(PID.TID 0000.0001) //      0 .....+++++++++++++++++++++...............................................................+++
(PID.TID 0000.0001) //     -1 .....+++++++++++++++++++++...............................................................+++
(PID.TID 0000.0001) //     -2 .....+++++++++++++++++++++...............................................................+++
(PID.TID 0000.0001) //     -3 .....++++++++++++++++++++++..............................................................+++
(PID.TID 0000.0001) // =======================================================
(PID.TID 0000.0001) // END OF FIELD                                          =
(PID.TID 0000.0001) // =======================================================
(PID.TID 0000.0001) 
(PID.TID 0000.0001) // =======================================================
(PID.TID 0000.0001) // Field hFacS at iteration          0
(PID.TID 0000.0001) // CMIN =          0.000000000000000E+00
(PID.TID 0000.0001) // CMAX =          1.000000000000000E+00
(PID.TID 0000.0001) // CINT =          3.703703703703703E-02
(PID.TID 0000.0001) // SYMBOLS (CMIN->CMAX): -abcdefghijklmnopqrstuvwxyz+
(PID.TID 0000.0001) //                  0.0: .
(PID.TID 0000.0001) // RANGE I (Lo:Hi:Step):(    -3:    80:     1)
(PID.TID 0000.0001) // RANGE J (Lo:Hi:Step):(    76:    -3:    -1)
(PID.TID 0000.0001) // RANGE K (Lo:Hi:Step):(   1:   1:   1)
(PID.TID 0000.0001) // =======================================================
(PID.TID 0000.0001) K =   1
(PID.TID 0000.0001) //                I=6       I=16      I=26      I=36      I=38      I=48      I=58      I=68      I=78
(PID.TID 0000.0001) // |--J--|321012345|789012345|789012345|789012345|789012567|901234567|901234567|901234567|901234567|90
(PID.TID 0000.0001) //     76 ...............................................................+............................
(PID.TID 0000.0001) //     75 ...............................................................+............................
(PID.TID 0000.0001) //     74 ............................................................................................
(PID.TID 0000.0001) //     73 ............................................................................................
(PID.TID 0000.0001) //     72 ....++++++++++++++++++++++..............................................................++++
(PID.TID 0000.0001) //     71 ....++++++++++++++++++++++..............................................................++++
(PID.TID 0000.0001) //     70 ....++++++++++++++++++++++..............................................................++++
(PID.TID 0000.0001) //     69 ....+++++++++++++++++++++++.............................................................++++
(PID.TID 0000.0001) //     68 ....+++++++++++++++++++++++.............................................................++++
(PID.TID 0000.0001) //     67 ....++++++++++++...+..++++++............................................................++++
(PID.TID 0000.0001) //     66 ....++++++++++........+++++++...........................................................++++
(PID.TID 0000.0001) //     65 ....+++++++++.........+++++++++.........................................................++++
(PID.TID 0000.0001) //     64 ....+++++++............+++++++++........................................................++++
(PID.TID 0000.0001) //     63 .....+++................++++++++.........................................................+++
(PID.TID 0000.0001) //     62 .....+...................++++++++........................................................+..
(PID.TID 0000.0001) //     61 ..........................++++++++..........................................................
(PID.TID 0000.0001) //     60 ..........................+++++++...........................................................
(PID.TID 0000.0001) //     59 ...............+.....++..+++++..............................................................
(PID.TID 0000.0001) //     58 ..........++...+++..+++++++++...............................................................
(PID.TID 0000.0001) //     57 .........+++...+++..++++++++................................................................
(PID.TID 0000.0001) //     56 .........+++...+++++++++++..................................................................
(PID.TID 0000.0001) //     55 .........+++++...++++++++...................................................................
(PID.TID 0000.0001) //     54 .........++.++...+++++++....................................................................
(PID.TID 0000.0001) //     53 .......++++.++...++++++....................................................................+
(PID.TID 0000.0001) //     52 ........+++........++++.....................................................................
(PID.TID 0000.0001) //     51 .........++........+++......................................................................
(PID.TID 0000.0001) //     50 .........+++.+.+............................................................................
(PID.TID 0000.0001) //     49 ..........++++++.+..........................................................................
(PID.TID 0000.0001) //     48 ..........+++++.............................................................................
(PID.TID 0000.0001) //     47 ..........+++++.............................................................................
(PID.TID 0000.0001) //     46 ...........++++.............................................................................
(PID.TID 0000.0001) //     45 ............++++............................................................................
(PID.TID 0000.0001) //     44 ............++++............................................................................
(PID.TID 0000.0001) //     43 ..........++++++..+...........................................++............................
(PID.TID 0000.0001) //     42 .........+++++++++++....................................+++++++++++.........................
(PID.TID 0000.0001) //     41 ........+++++++.+++++..................................++++++++++++++.......................
(PID.TID 0000.0001) //     40 ........+++++++.+++++.................................+++++++++++++++++.....................
(PID.TID 0000.0001) //     39 ..........+++++.+++++.................................++++++++++++++++++....................
(PID.TID 0000.0001) //     38 ..........+++++++++++.............+...................+++++++++++++++++++......++++.........
(PID.TID 0000.0001) //     37 ...........++++++++++++......+++++++.........+.......+++++++++++++++++++++++..++++++........
(PID.TID 0000.0001) //     36 ++.........++++++++++++....+++++++++.........+.......+++++++++++++++++++++++++++++++++......
(PID.TID 0000.0001) //     35 ++..........++++++++++++++++++++++++++......++......++++++++++++++++....++++++++++++++......
(PID.TID 0000.0001) //     34 +++.........++++++++++++++++++++++++++.....++......++.+++++++++++++.....+++++++++++++++.....
(PID.TID 0000.0001) //     33 +++...........+++++++++++++++++++++++++++++++.+++++++..+++++++++++..........+++++++++++.....
(PID.TID 0000.0001) //     40 ........+++++++.+++++.................................+++++++++++++++++.....................
(PID.TID 0000.0001) //     39 ..........+++++.+++++.................................++++++++++++++++++....................
(PID.TID 0000.0001) //     38 ..........+++++++++++.............+...................+++++++++++++++++++......++++.........
(PID.TID 0000.0001) //     37 ...........++++++++++++......+++++++.........+.......+++++++++++++++++++++++..++++++........
(PID.TID 0000.0001) //     36 ++.........++++++++++++....+++++++++.........+.......+++++++++++++++++++++++++++++++++......
(PID.TID 0000.0001) //     35 ++..........++++++++++++++++++++++++++......++......++++++++++++++++....++++++++++++++......
(PID.TID 0000.0001) //     34 +++.........++++++++++++++++++++++++++.....++......++.+++++++++++++.....+++++++++++++++.....
(PID.TID 0000.0001) //     33 +++...........+++++++++++++++++++++++++++++++.+++++++..+++++++++++..........+++++++++++.....
(PID.TID 0000.0001) //     32 +++...........++++++++++++++....+++++++++++++.+++++++..+++++++++.............++++++++++.....
(PID.TID 0000.0001) //     31 +++............+++++++++++++....+++++++++++++.+++++++..++++++.....................+.+++.....
(PID.TID 0000.0001) //     30 ...............+++++++++++++....+++++++++++++.+++++++.++++..................................
(PID.TID 0000.0001) //     29 ................+++++++++++++++++++++++++++++++++++++++.....................................
(PID.TID 0000.0001) //     28 ................+++++++++++++++++++++++++++++++++++++++.....................................
(PID.TID 0000.0001) //     27 ................++++++++++++++++++++++++++++++++++++++......................................
(PID.TID 0000.0001) //     26 ................++++++++++++++++++++++++++++++++++++++......................................
(PID.TID 0000.0001) //     25 ................+++++++++++++++++++++++++++++++++++++++.....................................
(PID.TID 0000.0001) //     24 ...............++++++++++++++++++++++++++++++++++++++++.....................................
(PID.TID 0000.0001) //     23 ..............+++++++++++++++++++++++++++++++++++++++++.....................................
(PID.TID 0000.0001) //     22 ...............++++++++++++++++++++++..+++++++.++++++++.....................................
(PID.TID 0000.0001) //     21 ................++.++++++++...+..++++...+.++++..+.+++++.....................................
(PID.TID 0000.0001) //     20 ...................++++++.........+++...+.++++..+.+++++.....................................
(PID.TID 0000.0001) //     19 ...................+++++...........+++....++++....++++++....................................
(PID.TID 0000.0001) //     18 ...................+++.............+++...+...+...+...++++...................................
(PID.TID 0000.0001) //     17 ...................++..............++++++.....+++.....+++...................................
(PID.TID 0000.0001) //     16 ..................................++++++......++.......++++.................................
(PID.TID 0000.0001) //     15 ..................................++++++......++........+++.................................
(PID.TID 0000.0001) //     14 .................................+++++++......++........++++................................
(PID.TID 0000.0001) //     13 .................................+++++...................++++...............................
(PID.TID 0000.0001) //     12 .................................+++.....................+++++..............................
(PID.TID 0000.0001) //     11 .........................................................+++++..............................
(PID.TID 0000.0001) //     10 .........................................................++++++.............................
(PID.TID 0000.0001) //      9 .........................................................++++++.............................
(PID.TID 0000.0001) //      8 ..........................................................++++++............................
(PID.TID 0000.0001) //      7 ..........................................................++.+++............................
(PID.TID 0000.0001) //      6 .............................................................+++............................
(PID.TID 0000.0001) //      5 .............................................................+++............................
(PID.TID 0000.0001) //      4 ...............................................................+............................
(PID.TID 0000.0001) //      3 ...............................................................+............................
(PID.TID 0000.0001) //      2 ............................................................................................
(PID.TID 0000.0001) //      1 ............................................................................................
(PID.TID 0000.0001) //      0 ....++++++++++++++++++++++..............................................................++++
(PID.TID 0000.0001) //     -1 ....++++++++++++++++++++++..............................................................++++
(PID.TID 0000.0001) //     -2 ....++++++++++++++++++++++..............................................................++++
(PID.TID 0000.0001) //     -3 ....+++++++++++++++++++++++.............................................................++++
(PID.TID 0000.0001) // =======================================================
(PID.TID 0000.0001) // END OF FIELD                                          =
(PID.TID 0000.0001) // =======================================================
(PID.TID 0000.0001) 
(PID.TID 0000.0001) 
(PID.TID 0000.0001) // =======================================================
(PID.TID 0000.0001) // Calendar configuration >>> START <<<
(PID.TID 0000.0001) // =======================================================
(PID.TID 0000.0001) 
(PID.TID 0000.0001) modelstart = /* Start time of the model integration [s] */
(PID.TID 0000.0001)                 2.260656000000000E+08
(PID.TID 0000.0001)     ;
(PID.TID 0000.0001) modelend  = /* End time of the model integration [s] */
(PID.TID 0000.0001)                 2.260704000000000E+08
(PID.TID 0000.0001)     ;
(PID.TID 0000.0001) modelstep = /* Time interval for a model forward step [s] */
(PID.TID 0000.0001)                 1.200000000000000E+03
(PID.TID 0000.0001)     ;
(PID.TID 0000.0001) usingGregorianCalendar= /* Calendar Type: Gregorian Calendar */
(PID.TID 0000.0001)                   T
(PID.TID 0000.0001)     ;
(PID.TID 0000.0001) usingJulianCalendar = /* Calendar Type: Julian Calendar */
(PID.TID 0000.0001)                   F
(PID.TID 0000.0001)     ;
(PID.TID 0000.0001) usingModelCalendar  = /* Calendar Type: Model Calendar */
(PID.TID 0000.0001)                   F
(PID.TID 0000.0001)     ;
(PID.TID 0000.0001) modelstartdate YYYYMMDD = /* Model start date YYYY-MM-DD */
(PID.TID 0000.0001)                19990301
(PID.TID 0000.0001)     ;
(PID.TID 0000.0001)   modelstartdate HHMMSS = /* Model start date HH-MM-SS  */
(PID.TID 0000.0001)                  120000
(PID.TID 0000.0001)     ;
(PID.TID 0000.0001) modelenddate   YYYYMMDD = /* Model end date YYYY-MM-DD */
(PID.TID 0000.0001)                19990301
(PID.TID 0000.0001)     ;
(PID.TID 0000.0001)   modelenddate   HHMMSS = /* Model end date HH-MM-SS  */
(PID.TID 0000.0001)                  132000
(PID.TID 0000.0001)     ;
(PID.TID 0000.0001) intyears = /* Number of calendar years affected by the integration */
(PID.TID 0000.0001)                       1
(PID.TID 0000.0001)     ;
(PID.TID 0000.0001) intmonths= /* Number of calendar months affected by the integration */
(PID.TID 0000.0001)                       1
(PID.TID 0000.0001)     ;
(PID.TID 0000.0001) intdays = /* Number of calendar days affected by the integration */
(PID.TID 0000.0001)                       1
(PID.TID 0000.0001)     ;
(PID.TID 0000.0001) modeliter0 = /* Base timestep number  */
(PID.TID 0000.0001)                  188388
(PID.TID 0000.0001)     ;
(PID.TID 0000.0001) modeliterend = /* Final timestep number  */
(PID.TID 0000.0001)                  188392
(PID.TID 0000.0001)     ;
(PID.TID 0000.0001) modelintsteps= /* Number of model timesteps  */
(PID.TID 0000.0001)                       4
(PID.TID 0000.0001)     ;
(PID.TID 0000.0001) 
(PID.TID 0000.0001) // =======================================================
(PID.TID 0000.0001) // Calendar configuration  >>> END <<<
(PID.TID 0000.0001) // =======================================================
(PID.TID 0000.0001) 
(PID.TID 0000.0001) GAD_INIT_FIXED: GAD_OlMinSize=  4  0  1
(PID.TID 0000.0001) 
(PID.TID 0000.0001) // ===================================
(PID.TID 0000.0001) // GAD parameters :
(PID.TID 0000.0001) // ===================================
(PID.TID 0000.0001) tempAdvScheme =   /* Temp. Horiz.Advection scheme selector */
(PID.TID 0000.0001)                       7
(PID.TID 0000.0001)     ;
(PID.TID 0000.0001) tempVertAdvScheme =   /* Temp. Vert. Advection scheme selector */
(PID.TID 0000.0001)                       7
(PID.TID 0000.0001)     ;
(PID.TID 0000.0001) tempMultiDimAdvec =   /* use Muti-Dim Advec method for Temp */
(PID.TID 0000.0001)                   T
(PID.TID 0000.0001)     ;
(PID.TID 0000.0001) tempSOM_Advection = /* use 2nd Order Moment Advection for Temp */
(PID.TID 0000.0001)                   F
(PID.TID 0000.0001)     ;
(PID.TID 0000.0001) AdamsBashforthGt = /* apply Adams-Bashforth extrapolation on Gt */
(PID.TID 0000.0001)                   F
(PID.TID 0000.0001)     ;
(PID.TID 0000.0001) AdamsBashforth_T = /* apply Adams-Bashforth extrapolation on Temp */
(PID.TID 0000.0001)                   F
(PID.TID 0000.0001)     ;
(PID.TID 0000.0001) saltAdvScheme =   /* Salt. Horiz.advection scheme selector */
(PID.TID 0000.0001)                       7
(PID.TID 0000.0001)     ;
(PID.TID 0000.0001) saltVertAdvScheme =   /* Salt. Vert. Advection scheme selector */
(PID.TID 0000.0001)                       7
(PID.TID 0000.0001)     ;
(PID.TID 0000.0001) saltMultiDimAdvec =   /* use Muti-Dim Advec method for Salt */
(PID.TID 0000.0001)                   T
(PID.TID 0000.0001)     ;
(PID.TID 0000.0001) saltSOM_Advection = /* use 2nd Order Moment Advection for Salt */
(PID.TID 0000.0001)                   F
(PID.TID 0000.0001)     ;
(PID.TID 0000.0001) AdamsBashforthGs = /* apply Adams-Bashforth extrapolation on Gs */
(PID.TID 0000.0001)                   F
(PID.TID 0000.0001)     ;
(PID.TID 0000.0001) AdamsBashforth_S = /* apply Adams-Bashforth extrapolation on Salt */
(PID.TID 0000.0001)                   F
(PID.TID 0000.0001)     ;
(PID.TID 0000.0001) // ===================================
(PID.TID 0000.0001) 
(PID.TID 0000.0001) // =======================================================
(PID.TID 0000.0001) // External forcing (EXF) configuration >>> START <<<
(PID.TID 0000.0001) // =======================================================
(PID.TID 0000.0001) 
(PID.TID 0000.0001)  EXF general parameters:
(PID.TID 0000.0001) 
(PID.TID 0000.0001) exf_iprec = /* exf file precision */
(PID.TID 0000.0001)                      32
(PID.TID 0000.0001)     ;
(PID.TID 0000.0001) useExfYearlyFields = /* add extension _YEAR to input file names */
(PID.TID 0000.0001)                   T
(PID.TID 0000.0001)     ;
(PID.TID 0000.0001) twoDigitYear = /* use 2-digit year extension */
(PID.TID 0000.0001)                   T
(PID.TID 0000.0001)     ;
(PID.TID 0000.0001) exf_verbose = /* print more messages to STDOUT */
(PID.TID 0000.0001)                   F
(PID.TID 0000.0001)     ;
(PID.TID 0000.0001) useExfCheckRange = /* check for fields range */
(PID.TID 0000.0001)                   F
(PID.TID 0000.0001)     ;
(PID.TID 0000.0001) exf_monFreq = /* EXF monitor frequency [ s ] */
(PID.TID 0000.0001)                 1.200000000000000E+03
(PID.TID 0000.0001)     ;
(PID.TID 0000.0001) repeatPeriod = /* period for cycling forcing dataset [ s ] */
(PID.TID 0000.0001)                 0.000000000000000E+00
(PID.TID 0000.0001)     ;
(PID.TID 0000.0001) climTempFreeze= /* Minimum climatological temperature [deg.C] */
(PID.TID 0000.0001)                -1.900000000000000E+00
(PID.TID 0000.0001)     ;
(PID.TID 0000.0001) windStressMax = /* Maximum absolute windstress [ Pa ] */
(PID.TID 0000.0001)                 2.000000000000000E+00
(PID.TID 0000.0001)     ;
(PID.TID 0000.0001) stressIsOnCgrid = /* set u,v_stress on Arakawa C-grid */
(PID.TID 0000.0001)                   F
(PID.TID 0000.0001)     ;
(PID.TID 0000.0001) cen2kel = /* conversion of deg. Centigrade to Kelvin [K] */
(PID.TID 0000.0001)                 2.731500000000000E+02
(PID.TID 0000.0001)     ;
(PID.TID 0000.0001) gravity_mks= /* gravitational acceleration [m/s^2] */
(PID.TID 0000.0001)                 9.810000000000000E+00
(PID.TID 0000.0001)     ;
(PID.TID 0000.0001) atmrho =  /* mean atmospheric density [kg/m^3] */
(PID.TID 0000.0001)                 1.200000000000000E+00
(PID.TID 0000.0001)     ;
(PID.TID 0000.0001) atmcp =  /* mean atmospheric specific heat [J/kg/K] */
(PID.TID 0000.0001)                 1.005000000000000E+03
(PID.TID 0000.0001)     ;
(PID.TID 0000.0001) flamb =  /* latent heat of evaporation [J/kg] */
(PID.TID 0000.0001)                 2.500000000000000E+06
(PID.TID 0000.0001)     ;
(PID.TID 0000.0001) flami =  /* latent heat of pure-ice melting [J/kg] */
(PID.TID 0000.0001)                 3.340000000000000E+05
(PID.TID 0000.0001)     ;
(PID.TID 0000.0001) cvapor_fac = /* const. for Saturation calculation [?] */
(PID.TID 0000.0001)                 6.403800000000000E+05
(PID.TID 0000.0001)     ;
(PID.TID 0000.0001) cvapor_exp = /* const. for Saturation calculation [?] */
(PID.TID 0000.0001)                 5.107400000000000E+03
(PID.TID 0000.0001)     ;
(PID.TID 0000.0001) cvapor_fac_ice= /* const. for Saturation calculation [?] */
(PID.TID 0000.0001)                 1.163780000000000E+07
(PID.TID 0000.0001)     ;
(PID.TID 0000.0001) cvapor_exp_ice= /* const. for Saturation calculation [?] */
(PID.TID 0000.0001)                 5.897800000000000E+03
(PID.TID 0000.0001)     ;
(PID.TID 0000.0001) humid_fac = /* humidity coef. in virtual temp. [(kg/kg)^-1] */
(PID.TID 0000.0001)                 6.060000000000000E-01
(PID.TID 0000.0001)     ;
(PID.TID 0000.0001) gamma_blk = /* adiabatic lapse rate [?] */
(PID.TID 0000.0001)                 1.000000000000000E-02
(PID.TID 0000.0001)     ;
(PID.TID 0000.0001) saltsat = /* reduction of Qsat over salty water [-] */
(PID.TID 0000.0001)                 9.800000000000000E-01
(PID.TID 0000.0001)     ;
(PID.TID 0000.0001) noNegativeEvap = /* prevent negative Evaporation */
(PID.TID 0000.0001)                   F
(PID.TID 0000.0001)     ;
(PID.TID 0000.0001) sstExtrapol = /* extrapolation coeff from lev. 1 & 2 to surf [-] */
(PID.TID 0000.0001)                 0.000000000000000E+00
(PID.TID 0000.0001)     ;
(PID.TID 0000.0001) cDrag_1 = /* coef used in drag calculation [?] */
(PID.TID 0000.0001)                 2.700000000000000E-03
(PID.TID 0000.0001)     ;
(PID.TID 0000.0001) cDrag_2 = /* coef used in drag calculation [?] */
(PID.TID 0000.0001)                 1.420000000000000E-04
(PID.TID 0000.0001)     ;
(PID.TID 0000.0001) cDrag_3 = /* coef used in drag calculation [?] */
(PID.TID 0000.0001)                 7.640000000000000E-05
(PID.TID 0000.0001)     ;
(PID.TID 0000.0001) cStanton_1 = /* coef used in Stanton number calculation [?] */
(PID.TID 0000.0001)                 3.270000000000000E-02
(PID.TID 0000.0001)     ;
(PID.TID 0000.0001) cStanton_2 = /* coef used in Stanton number calculation [?] */
(PID.TID 0000.0001)                 1.800000000000000E-02
(PID.TID 0000.0001)     ;
(PID.TID 0000.0001) cDalton = /* coef used in Dalton number calculation [?] */
(PID.TID 0000.0001)                 3.460000000000000E-02
(PID.TID 0000.0001)     ;
(PID.TID 0000.0001) exf_scal_BulkCdn= /* Drag coefficient scaling factor [-] */
(PID.TID 0000.0001)                 1.000000000000000E+00
(PID.TID 0000.0001)     ;
(PID.TID 0000.0001) zolmin = /* minimum stability parameter [?] */
(PID.TID 0000.0001)                -1.000000000000000E+02
(PID.TID 0000.0001)     ;
(PID.TID 0000.0001) psim_fac = /* coef used in turbulent fluxes calculation [-] */
(PID.TID 0000.0001)                 5.000000000000000E+00
(PID.TID 0000.0001)     ;
(PID.TID 0000.0001) zref =  /* reference height [ m ] */
(PID.TID 0000.0001)                 1.000000000000000E+01
(PID.TID 0000.0001)     ;
(PID.TID 0000.0001) hu =  /* height of mean wind [ m ] */
(PID.TID 0000.0001)                 1.000000000000000E+01
(PID.TID 0000.0001)     ;
(PID.TID 0000.0001) ht =  /* height of mean temperature [ m ] */
(PID.TID 0000.0001)                 2.000000000000000E+00
(PID.TID 0000.0001)     ;
(PID.TID 0000.0001) hq =  /* height of mean spec.humidity [ m ] */
(PID.TID 0000.0001)                 2.000000000000000E+00
(PID.TID 0000.0001)     ;
(PID.TID 0000.0001) uMin = /* minimum wind speed [m/s] */
(PID.TID 0000.0001)                 5.000000000000000E-01
(PID.TID 0000.0001)     ;
(PID.TID 0000.0001) useStabilityFct_overIce= /* transfert Coeffs over sea-ice depend on stability */
(PID.TID 0000.0001)                   F
(PID.TID 0000.0001)     ;
(PID.TID 0000.0001) exf_iceCd = /* drag coefficient over sea-ice (fixed) [-] */
(PID.TID 0000.0001)                 1.630000000000000E-03
(PID.TID 0000.0001)     ;
(PID.TID 0000.0001) exf_iceCe = /* transfert coeff. over sea-ice, for Evap (fixed) [-] */
(PID.TID 0000.0001)                 1.630000000000000E-03
(PID.TID 0000.0001)     ;
(PID.TID 0000.0001) exf_iceCh = /* transfert coeff. over sea-ice, Sens.Heat.(fixed)[-] */
(PID.TID 0000.0001)                 1.630000000000000E-03
(PID.TID 0000.0001)     ;
(PID.TID 0000.0001) exf_albedo =  /* Sea-water albedo [-] */
(PID.TID 0000.0001)                 1.500000000000000E-01
(PID.TID 0000.0001)     ;
(PID.TID 0000.0001) useExfZenAlbedo = /* Sea-water albedo varies with zenith angle */
(PID.TID 0000.0001)                   F
(PID.TID 0000.0001)     ;
(PID.TID 0000.0001) select_ZenAlbedo = /* Sea-water albedo computation method */
(PID.TID 0000.0001)                       0
(PID.TID 0000.0001)     ;
(PID.TID 0000.0001) useExfZenIncoming = /* compute incoming solar radiation */
(PID.TID 0000.0001)                   F
(PID.TID 0000.0001)     ;
(PID.TID 0000.0001) ocean_emissivity = /* longwave ocean-surface emissivity [-] */
(PID.TID 0000.0001)                 9.700176366843034E-01
(PID.TID 0000.0001)     ;
(PID.TID 0000.0001) ice_emissivity = /* longwave seaice emissivity [-] */
(PID.TID 0000.0001)                 9.500000000000000E-01
(PID.TID 0000.0001)     ;
(PID.TID 0000.0001) snow_emissivity = /* longwave snow  emissivity [-] */
(PID.TID 0000.0001)                 9.500000000000000E-01
(PID.TID 0000.0001)     ;
(PID.TID 0000.0001) 
(PID.TID 0000.0001)  EXF main CPP flags:
(PID.TID 0000.0001) 
(PID.TID 0000.0001) // USE_EXF_INTERPOLATION:              defined
(PID.TID 0000.0001) // ALLOW_ATM_TEMP:                     defined
(PID.TID 0000.0001) // ALLOW_ATM_WIND (useAtmWind):        defined
(PID.TID 0000.0001) // ALLOW_DOWNWARD_RADIATION:           defined
(PID.TID 0000.0001) // ALLOW_BULKFORMULAE:                 defined
(PID.TID 0000.0001) 
(PID.TID 0000.0001)    Net shortwave flux forcing starts at                0.
(PID.TID 0000.0001)    Net shortwave flux forcing period is                0.
(PID.TID 0000.0001)    Net shortwave flux forcing is read from file:
(PID.TID 0000.0001)    >>    <<
(PID.TID 0000.0001)    interpolate "swflux" (method=  1 ):
(PID.TID 0000.0001)    lon0= 6.173E+04, nlon=    76, lon_inc= 1.235E+05
(PID.TID 0000.0001)    lat0= 6.173E+04, nlat=    72, lat_inc= 1.235E+05
(PID.TID 0000.0001) 
(PID.TID 0000.0001)    Zonal wind forcing starts at                    5140800.
(PID.TID 0000.0001)    Zonal wind forcing period is                      21600.
(PID.TID 0000.0001)    Zonal wind forcing is read from file:
(PID.TID 0000.0001)    >>  RG_u10m  <<
(PID.TID 0000.0001)    interpolate "uwind" (method= 12 ):
(PID.TID 0000.0001)    lon0=   0.00000, nlon=   192, lon_inc= 1.8750000
(PID.TID 0000.0001)    lat0= -88.54200, nlat=    94, inc(min,max)= 1.88880 1.90480
(PID.TID 0000.0001) 
(PID.TID 0000.0001)    Meridional wind forcing starts at               5140800.
(PID.TID 0000.0001)    Meridional wind forcing period is                 21600.
(PID.TID 0000.0001)    Meridional wind forcing is read from file:
(PID.TID 0000.0001)    >>  RG_v10m  <<
(PID.TID 0000.0001)    interpolate "vwind" (method= 22 ):
(PID.TID 0000.0001)    lon0=   0.00000, nlon=   192, lon_inc= 1.8750000
(PID.TID 0000.0001)    lat0= -88.54200, nlat=    94, inc(min,max)= 1.88880 1.90480
(PID.TID 0000.0001)     Interp. U & V comp. together: uvInterp_wind =    T
(PID.TID 0000.0001) 
(PID.TID 0000.0001)    Atmospheric temperature starts at               5140800.
(PID.TID 0000.0001)    Atmospheric temperature period is                 21600.
(PID.TID 0000.0001)    Atmospheric temperature is read from file:
(PID.TID 0000.0001)    >>  RG_tmp2m  <<
(PID.TID 0000.0001)    interpolate "atemp" (method=  1 ):
(PID.TID 0000.0001)    lon0=   0.00000, nlon=   192, lon_inc= 1.8750000
(PID.TID 0000.0001)    lat0= -88.54200, nlat=    94, inc(min,max)= 1.88880 1.90480
(PID.TID 0000.0001) 
(PID.TID 0000.0001)    Atmospheric specific humidity starts at         5140800.
(PID.TID 0000.0001)    Atmospheric specific humidity period is           21600.
(PID.TID 0000.0001)    Atmospheric specific humidity is read from file:
(PID.TID 0000.0001)    >>  RG_spfh2m  <<
(PID.TID 0000.0001)    interpolate "aqh" (method=  1 ):
(PID.TID 0000.0001)    lon0=   0.00000, nlon=   192, lon_inc= 1.8750000
(PID.TID 0000.0001)    lat0= -88.54200, nlat=    94, inc(min,max)= 1.88880 1.90480
(PID.TID 0000.0001) 
(PID.TID 0000.0001)    Net longwave flux forcing starts at                 0.
(PID.TID 0000.0001)    Net longwave flux forcing period is                 0.
(PID.TID 0000.0001)    Net longwave flux forcing is read from file:
(PID.TID 0000.0001)    >>    <<
(PID.TID 0000.0001)    interpolate "lwflux" (method=  1 ):
(PID.TID 0000.0001)    lon0= 6.173E+04, nlon=    76, lon_inc= 1.235E+05
(PID.TID 0000.0001)    lat0= 6.173E+04, nlat=    72, lat_inc= 1.235E+05
(PID.TID 0000.0001) 
(PID.TID 0000.0001)    Precipitation data set starts at                5140800.
(PID.TID 0000.0001)    Precipitation data period is                      21600.
(PID.TID 0000.0001)    Precipitation data is read from file:
(PID.TID 0000.0001)    >>  RG_rain  <<
(PID.TID 0000.0001)    interpolate "precip" (method=  1 ):
(PID.TID 0000.0001)    lon0=   0.00000, nlon=   192, lon_inc= 1.8750000
(PID.TID 0000.0001)    lat0= -88.54200, nlat=    94, inc(min,max)= 1.88880 1.90480
(PID.TID 0000.0001) 
(PID.TID 0000.0001) // EXF_READ_EVAP:                  NOT defined
(PID.TID 0000.0001) 
(PID.TID 0000.0001) // ALLOW_RUNOFF:                       defined
(PID.TID 0000.0001)    Runoff starts at               0.
(PID.TID 0000.0001)    Runoff period is             -12.
(PID.TID 0000.0001)    Runoff is read from file:
(PID.TID 0000.0001)    >>  runoff-360x180x12.bin  <<
(PID.TID 0000.0001) // ALLOW_RUNOFTEMP:                NOT defined
(PID.TID 0000.0001)    interpolate "runoff" (method=  1 ):
(PID.TID 0000.0001)    lon0=   0.50000, nlon=   360, lon_inc= 1.0000000
(PID.TID 0000.0001)    lat0= -89.50000, nlat=   180, lat_inc= 1.0000000
(PID.TID 0000.0001) 
(PID.TID 0000.0001)    Downward shortwave flux forcing starts at          5130000.
(PID.TID 0000.0001)    Downward shortwave flux forcing period is            21600.
(PID.TID 0000.0001)    Downward shortwave flux forcing is read from file:
(PID.TID 0000.0001)    >>  RG_dsw  <<
(PID.TID 0000.0001)    interpolate "swdown" (method=  1 ):
(PID.TID 0000.0001)    lon0=   0.00000, nlon=   192, lon_inc= 1.8750000
(PID.TID 0000.0001)    lat0= -88.54200, nlat=    94, inc(min,max)= 1.88880 1.90480
(PID.TID 0000.0001) 
(PID.TID 0000.0001)    Downward longwave flux forcing starts at           5130000.
(PID.TID 0000.0001)    Downward longwave flux forcing period is             21600.
(PID.TID 0000.0001)    Downward longwave flux forcing is read from file:
(PID.TID 0000.0001)    >>  RG_dlw  <<
(PID.TID 0000.0001)    interpolate "lwdown" (method=  1 ):
(PID.TID 0000.0001)    lon0=   0.00000, nlon=   192, lon_inc= 1.8750000
(PID.TID 0000.0001)    lat0= -88.54200, nlat=    94, inc(min,max)= 1.88880 1.90480
(PID.TID 0000.0001) 
(PID.TID 0000.0001)    Atmospheric pressure forcing starts at                0.
(PID.TID 0000.0001)    Atmospheric pressure forcing period is                0.
(PID.TID 0000.0001)    Atmospheric pressureforcing is read from file:
(PID.TID 0000.0001)    >>    <<
(PID.TID 0000.0001)    interpolate "apressure" (method=  1 ):
(PID.TID 0000.0001)    lon0= 6.173E+04, nlon=    76, lon_inc= 1.235E+05
(PID.TID 0000.0001)    lat0= 6.173E+04, nlat=    72, lat_inc= 1.235E+05
(PID.TID 0000.0001) 
(PID.TID 0000.0001) // =======================================================
(PID.TID 0000.0001) // External forcing (EXF) climatology configuration :
(PID.TID 0000.0001) // =======================================================
(PID.TID 0000.0001) 
(PID.TID 0000.0001) // ALLOW_CLIMSST_RELAXATION:       NOT defined
(PID.TID 0000.0001) // ALLOW_CLIMSSS_RELAXATION:           defined
(PID.TID 0000.0001) 
(PID.TID 0000.0001)    Climatological SSS starts at                   0.
(PID.TID 0000.0001)    Climatological SSS period is                 -12.
(PID.TID 0000.0001)    Climatological SSS is read from file:
(PID.TID 0000.0001)    >>  LEV01_SSS_360x180x12.bin  <<
(PID.TID 0000.0001)    interpolate "climsss" (method=  2 ):
(PID.TID 0000.0001)    lon0=   0.50000, nlon=   360, lon_inc= 1.0000000
(PID.TID 0000.0001)    lat0= -89.50000, nlat=   180, lat_inc= 1.0000000
(PID.TID 0000.0001) 
(PID.TID 0000.0001) // =======================================================
(PID.TID 0000.0001) // External forcing (EXF) configuration  >>> END <<<
(PID.TID 0000.0001) // =======================================================
(PID.TID 0000.0001) 
(PID.TID 0000.0001) QQ random port_rand            11231   0.4077530000000000
(PID.TID 0000.0001)  OPEN_COPY_DATA_FILE: opening file data.traits
(PID.TID 0000.0001) // =======================================================
(PID.TID 0000.0001) // Parameter file "data.traits"
(PID.TID 0000.0001) // =======================================================
(PID.TID 0000.0001) > &GUD_TRAITS
(PID.TID 0000.0001) > /
(PID.TID 0000.0001) 
(PID.TID 0000.0001)  GUD_INIT_FIXED: opening data.traits
(PID.TID 0000.0001)  OPEN_COPY_DATA_FILE: opening file data.traits
(PID.TID 0000.0001) // =======================================================
(PID.TID 0000.0001) // Parameter file "data.traits"
(PID.TID 0000.0001) // =======================================================
(PID.TID 0000.0001) > &GUD_TRAITS
(PID.TID 0000.0001) > /
(PID.TID 0000.0001) 
(PID.TID 0000.0001)  ===================================
(PID.TID 0000.0001) // =======================================================
(PID.TID 0000.0001) // Seaice configuration (SEAICE_PARM01) >>> START <<<
(PID.TID 0000.0001) // =======================================================
(PID.TID 0000.0001) 
(PID.TID 0000.0001)    Seaice time stepping configuration   > START <
(PID.TID 0000.0001)    ----------------------------------------------
(PID.TID 0000.0001) SEAICE_deltaTtherm= /* thermodynamic timestep */
(PID.TID 0000.0001)                 1.200000000000000E+03
(PID.TID 0000.0001)     ;
(PID.TID 0000.0001) SEAICE_deltaTdyn  = /* dynamic timestep */
(PID.TID 0000.0001)                 1.200000000000000E+03
(PID.TID 0000.0001)     ;
(PID.TID 0000.0001) SEAICEuseBDF2  = /* use backw. differencing for mom. eq. */
(PID.TID 0000.0001)                   F
(PID.TID 0000.0001)     ;
(PID.TID 0000.0001) SEAICErestoreUnderIce  = /* restore T and S under ice */
(PID.TID 0000.0001)                   F
(PID.TID 0000.0001)     ;
(PID.TID 0000.0001) 
(PID.TID 0000.0001)    Seaice dynamics configuration   > START <
(PID.TID 0000.0001)    ------------------------------------------
(PID.TID 0000.0001) SEAICEuseDYNAMICS = /* use dynamics */
(PID.TID 0000.0001)                   T
(PID.TID 0000.0001)     ;
(PID.TID 0000.0001) model grid type   = /* type of sea ice model grid */
(PID.TID 0000.0001)               'C-GRID'
(PID.TID 0000.0001)     ;
(PID.TID 0000.0001) SEAICEuseEVP      = /* use EVP solver rather than LSR */
(PID.TID 0000.0001)                   F
(PID.TID 0000.0001)     ;
(PID.TID 0000.0001) OCEAN_drag        = /* air-ocean drag coefficient */
(PID.TID 0000.0001)                 8.154100000000000E-04
(PID.TID 0000.0001)     ;
(PID.TID 0000.0001) SEAICE_drag       = /* air-ice drag coefficient */
(PID.TID 0000.0001)                 2.000000000000000E-03
(PID.TID 0000.0001)     ;
(PID.TID 0000.0001) SEAICE_drag_south      = /* Southern Ocean SEAICE_drag */
(PID.TID 0000.0001)                 2.000000000000000E-03
(PID.TID 0000.0001)     ;
(PID.TID 0000.0001) SEAICE_waterDrag  = /* water-ice drag * density */
(PID.TID 0000.0001)                 5.350800000000000E+00
(PID.TID 0000.0001)     ;
(PID.TID 0000.0001) SEAICE_waterDrag_south = /* Southern Ocean waterDrag */
(PID.TID 0000.0001)                 5.350800000000000E+00
(PID.TID 0000.0001)     ;
(PID.TID 0000.0001) SEAICEuseTilt     = /* include surface tilt in dyna. */
(PID.TID 0000.0001)                   T
(PID.TID 0000.0001)     ;
(PID.TID 0000.0001) SEAICEuseTEM      = /* use truncated ellipse rheology */
(PID.TID 0000.0001)                   F
(PID.TID 0000.0001)     ;
(PID.TID 0000.0001) SEAICE_strength   = /* sea-ice strength Pstar */
(PID.TID 0000.0001)                 2.678000000000000E+04
(PID.TID 0000.0001)     ;
(PID.TID 0000.0001) SEAICEpresH0   = /* sea-ice strength Heff threshold */
(PID.TID 0000.0001)                 1.000000000000000E+00
(PID.TID 0000.0001)     ;
(PID.TID 0000.0001) SEAICEpresPow0 = /* exponent for Heff<SEAICEpresH0 */
(PID.TID 0000.0001)                       1
(PID.TID 0000.0001)     ;
(PID.TID 0000.0001) SEAICEpresPow1 = /* exponent for Heff>SEAICEpresH0 */
(PID.TID 0000.0001)                       1
(PID.TID 0000.0001)     ;
(PID.TID 0000.0001) SEAICEetaZmethod = /* method computing eta at Z-point */
(PID.TID 0000.0001)                       0
(PID.TID 0000.0001)     ;
(PID.TID 0000.0001) SEAICE_zetaMin    = /* lower bound for viscosity */
(PID.TID 0000.0001)                 0.000000000000000E+00
(PID.TID 0000.0001)     ;
(PID.TID 0000.0001) SEAICE_eccen    = /* elliptical yield curve eccent */
(PID.TID 0000.0001)                 2.000000000000000E+00
(PID.TID 0000.0001)     ;
(PID.TID 0000.0001) SEAICEstressFactor    = /* wind stress scaling factor */
(PID.TID 0000.0001)                 1.000000000000000E+00
(PID.TID 0000.0001)     ;
(PID.TID 0000.0001) SEAICE_airTurnAngle    = /* air-ice turning angle */
(PID.TID 0000.0001)                 0.000000000000000E+00
(PID.TID 0000.0001)     ;
(PID.TID 0000.0001) SEAICE_waterTurnAngle  = /* ice-water turning angle */
(PID.TID 0000.0001)                 0.000000000000000E+00
(PID.TID 0000.0001)     ;
(PID.TID 0000.0001) SEAICEuseMetricTerms = /* use metric terms */
(PID.TID 0000.0001)                   T
(PID.TID 0000.0001)     ;
(PID.TID 0000.0001) SEAICE_no_slip    = /* no slip boundary conditions */
(PID.TID 0000.0001)                   F
(PID.TID 0000.0001)     ;
(PID.TID 0000.0001) SEAICE_clipVeloctities = /* impose max. vels. */
(PID.TID 0000.0001)                   F
(PID.TID 0000.0001)     ;
(PID.TID 0000.0001) useHB87stressCoupling  = /* altern. ice-ocean stress */
(PID.TID 0000.0001)                   F
(PID.TID 0000.0001)     ;
(PID.TID 0000.0001) SEAICE_maskRHS    = /* mask RHS of solver */
(PID.TID 0000.0001)                   F
(PID.TID 0000.0001)     ;
(PID.TID 0000.0001) LSR_mixIniGuess = /* mix free-drift sol. into LSR initial Guess */
(PID.TID 0000.0001)                      -1
(PID.TID 0000.0001)     ;
(PID.TID 0000.0001) SOLV_MAX_ITERS    = /* max. number of LSR solver steps */
(PID.TID 0000.0001)                    1500
(PID.TID 0000.0001)     ;
(PID.TID 0000.0001) SEAICE_LSRrelaxU  = /* LSR solver: relaxation parameter */
(PID.TID 0000.0001)                 9.500000000000000E-01
(PID.TID 0000.0001)     ;
(PID.TID 0000.0001) SEAICE_LSRrelaxV  = /* LSR solver: relaxation parameter */
(PID.TID 0000.0001)                 9.500000000000000E-01
(PID.TID 0000.0001)     ;
(PID.TID 0000.0001) LSR_ERROR         = /* sets accuracy of LSR solver */
(PID.TID 0000.0001)                 1.000000000000000E-13
(PID.TID 0000.0001)     ;
(PID.TID 0000.0001) SOLV_NCHECK       = /* test interval for LSR solver */
(PID.TID 0000.0001)                       2
(PID.TID 0000.0001)     ;
(PID.TID 0000.0001) NPSEUDOTIMESTEPS  = /* num. of extra pseudo time steps */
(PID.TID 0000.0001)                       2
(PID.TID 0000.0001)     ;
(PID.TID 0000.0001) SEAICEuseMultiTileSolver = /* use full domain tri-diag solver */
(PID.TID 0000.0001)                   F
(PID.TID 0000.0001)     ;
(PID.TID 0000.0001) SEAICE_OLx = /* overlap for LSR/preconditioner */
(PID.TID 0000.0001)                       2
(PID.TID 0000.0001)     ;
(PID.TID 0000.0001) SEAICE_OLy = /* overlap for LSR/preconditioner */
(PID.TID 0000.0001)                       2
(PID.TID 0000.0001)     ;
(PID.TID 0000.0001) 
(PID.TID 0000.0001)    Seaice advection diffusion config,   > START <
(PID.TID 0000.0001)    -----------------------------------------------
(PID.TID 0000.0001) SEAICEadvHeff = /* advect effective ice thickness */
(PID.TID 0000.0001)                   T
(PID.TID 0000.0001)     ;
(PID.TID 0000.0001) SEAICEadvArea = /* advect fractional ice area */
(PID.TID 0000.0001)                   T
(PID.TID 0000.0001)     ;
(PID.TID 0000.0001) SEAICEadvSnow = /* advect snow layer together with ice */
(PID.TID 0000.0001)                   T
(PID.TID 0000.0001)     ;
(PID.TID 0000.0001) SEAICEadvScheme   = /* advection scheme for ice */
(PID.TID 0000.0001)                       2
(PID.TID 0000.0001)     ;
(PID.TID 0000.0001) SEAICEuseFluxForm = /* advection in FV flux form */
(PID.TID 0000.0001)                   F
(PID.TID 0000.0001)     ;
(PID.TID 0000.0001) SEAICEadvSchArea   = /* advection scheme for area */
(PID.TID 0000.0001)                       2
(PID.TID 0000.0001)     ;
(PID.TID 0000.0001) SEAICEadvSchHeff   = /* advection scheme for thickness */
(PID.TID 0000.0001)                       2
(PID.TID 0000.0001)     ;
(PID.TID 0000.0001) SEAICEadvSchSnow   = /* advection scheme for snow */
(PID.TID 0000.0001)                       2
(PID.TID 0000.0001)     ;
(PID.TID 0000.0001) SEAICEdiffKhArea   = /* diffusivity (m^2/s) for area */
(PID.TID 0000.0001)                 0.000000000000000E+00
(PID.TID 0000.0001)     ;
(PID.TID 0000.0001) SEAICEdiffKhHeff   = /* diffusivity (m^2/s) for heff */
(PID.TID 0000.0001)                 0.000000000000000E+00
(PID.TID 0000.0001)     ;
(PID.TID 0000.0001) SEAICEdiffKhSnow   = /* diffusivity (m^2/s) for snow */
(PID.TID 0000.0001)                 0.000000000000000E+00
(PID.TID 0000.0001)     ;
(PID.TID 0000.0001) DIFF1             = /* parameter used in advect.F [m/s] */
(PID.TID 0000.0001)                 4.000000000000000E-03
(PID.TID 0000.0001)     ;
(PID.TID 0000.0001) 
(PID.TID 0000.0001)    Seaice thermodynamics configuration   > START <
(PID.TID 0000.0001)    -----------------------------------------------
(PID.TID 0000.0001) SEAICE_rhoIce     = /* density of sea ice (kg/m3) */
(PID.TID 0000.0001)                 9.100000000000000E+02
(PID.TID 0000.0001)     ;
(PID.TID 0000.0001) SEAICE_rhoSnow    = /* density of snow (kg/m3) */
(PID.TID 0000.0001)                 3.300000000000000E+02
(PID.TID 0000.0001)     ;
(PID.TID 0000.0001) SEAICE_rhoAir     = /* density of air (kg/m3) */
(PID.TID 0000.0001)                 1.300000000000000E+00
(PID.TID 0000.0001)     ;
(PID.TID 0000.0001) usePW79thermodynamics  = /* default 0-layer TD */
(PID.TID 0000.0001)                   T
(PID.TID 0000.0001)     ;
(PID.TID 0000.0001) SEAICE_lhEvap     = /* latent heat of evaporation */
(PID.TID 0000.0001)                 2.500000000000000E+06
(PID.TID 0000.0001)     ;
(PID.TID 0000.0001) SEAICE_lhFusion   = /* latent heat of fusion */
(PID.TID 0000.0001)                 3.340219780219775E+05
(PID.TID 0000.0001)     ;
(PID.TID 0000.0001) SEAICE_mcPheePiston = /* turbulent flux "piston velocity" a la McPhee (m/s) */
(PID.TID 0000.0001)                 8.333333333333333E-03
(PID.TID 0000.0001)     ;
(PID.TID 0000.0001) SEAICE_mcPheeTaper = /* tapering of turbulent flux (0.< <1.) for AREA=1. */
(PID.TID 0000.0001)                 0.000000000000000E+00
(PID.TID 0000.0001)     ;
(PID.TID 0000.0001) SEAICE_mcPheeStepFunc = /* replace linear tapering with step funct. */
(PID.TID 0000.0001)                   F
(PID.TID 0000.0001)     ;
(PID.TID 0000.0001) SEAICE_frazilFrac = /* frazil (T<tempFrz) to seaice conversion rate (0.< <1.) */
(PID.TID 0000.0001)                 1.000000000000000E+00
(PID.TID 0000.0001)     ;
(PID.TID 0000.0001) SEAICE_tempFrz0   = /* freezing temp. of sea water (intercept) */
(PID.TID 0000.0001)                 9.010000000000000E-02
(PID.TID 0000.0001)     ;
(PID.TID 0000.0001) SEAICE_dTempFrz_dS= /* freezing temp. of sea water (slope) */
(PID.TID 0000.0001)                -5.750000000000000E-02
(PID.TID 0000.0001)     ;
(PID.TID 0000.0001) SEAICE_growMeltByConv  = /* grow,melt by vert. conv. */
(PID.TID 0000.0001)                   F
(PID.TID 0000.0001)     ;
(PID.TID 0000.0001) SEAICE_doOpenWaterGrowth = /* grow by open water */
(PID.TID 0000.0001)                   T
(PID.TID 0000.0001)     ;
(PID.TID 0000.0001) SEAICE_doOpenWaterMelt = /* melt by open water */
(PID.TID 0000.0001)                   F
(PID.TID 0000.0001)     ;
(PID.TID 0000.0001) SEAICE_areaGainFormula = /* ice cover gain formula (1,2)*/
(PID.TID 0000.0001)                       1
(PID.TID 0000.0001)     1=from growth by ATM
(PID.TID 0000.0001)     2=from predicted growth by ATM
(PID.TID 0000.0001)     ;
(PID.TID 0000.0001) SEAICE_areaLossFormula = /* ice cover loss formula (1,2)*/
(PID.TID 0000.0001)                       1
(PID.TID 0000.0001)     1=from all but only melt conributions by ATM and OCN
(PID.TID 0000.0001)     2=from net melt-grow>0 by ATM and OCN
(PID.TID 0000.0001)     3=from predicted melt by ATM
(PID.TID 0000.0001)     ;
(PID.TID 0000.0001) HO                = /* nominal thickness of new ice */
(PID.TID 0000.0001)                 5.000000000000000E-01
(PID.TID 0000.0001)     ;
(PID.TID 0000.0001) HO_south               = /* Southern Ocean HO */
(PID.TID 0000.0001)                 5.000000000000000E-01
(PID.TID 0000.0001)     ;
(PID.TID 0000.0001) SEAICE_area_max        = /* set to les than 1. to mimic open leads */
(PID.TID 0000.0001)                 1.000000000000000E+00
(PID.TID 0000.0001)     ;
(PID.TID 0000.0001) SEAICE_salt0   = /* constant sea ice salinity */
(PID.TID 0000.0001)                 0.000000000000000E+00
(PID.TID 0000.0001)     ;
(PID.TID 0000.0001) SEAICE_salinityTracer = /* test SITR varia. salinity */
(PID.TID 0000.0001)                   F
(PID.TID 0000.0001)     ;
(PID.TID 0000.0001) SEAICEuseFlooding = /* turn submerged snow into ice */
(PID.TID 0000.0001)                   T
(PID.TID 0000.0001)     ;
(PID.TID 0000.0001) 
(PID.TID 0000.0001)    Seaice air-sea fluxes configuration,   > START <
(PID.TID 0000.0001)    -----------------------------------------------
(PID.TID 0000.0001) SEAICEheatConsFix  = /* accound for ocn<->seaice advect. heat flux */
(PID.TID 0000.0001)                   F
(PID.TID 0000.0001)     ;
(PID.TID 0000.0001) SEAICE_multDim    = /* number of ice categories (1 or 7) */
(PID.TID 0000.0001)                       7
(PID.TID 0000.0001)     ;
(PID.TID 0000.0001) IMAX_TICE         = /* iterations for ice surface temp */
(PID.TID 0000.0001)                      10
(PID.TID 0000.0001)     ;
(PID.TID 0000.0001) postSolvTempIter= /* flux calculation after surf. temp iter */
(PID.TID 0000.0001)                       0
(PID.TID 0000.0001)     ;
(PID.TID 0000.0001) SEAICE_dryIceAlb  = /* winter albedo */
(PID.TID 0000.0001)                 8.756000000000000E-01
(PID.TID 0000.0001)     ;
(PID.TID 0000.0001) SEAICE_wetIceAlb  = /* summer albedo */
(PID.TID 0000.0001)                 7.856000000000000E-01
(PID.TID 0000.0001)     ;
(PID.TID 0000.0001) SEAICE_drySnowAlb = /* dry snow albedo */
(PID.TID 0000.0001)                 9.656000000000000E-01
(PID.TID 0000.0001)     ;
(PID.TID 0000.0001) SEAICE_wetSnowAlb = /* wet snow albedo */
(PID.TID 0000.0001)                 8.256000000000000E-01
(PID.TID 0000.0001)     ;
(PID.TID 0000.0001) SEAICE_dryIceAlb_south = /* Southern Ocean dryIceAlb */
(PID.TID 0000.0001)                 8.756000000000000E-01
(PID.TID 0000.0001)     ;
(PID.TID 0000.0001) SEAICE_wetIceAlb_south = /* Southern Ocean wetIceAlb */
(PID.TID 0000.0001)                 7.856000000000000E-01
(PID.TID 0000.0001)     ;
(PID.TID 0000.0001) SEAICE_drySnowAlb_south= /* Southern Ocean drySnowAlb */
(PID.TID 0000.0001)                 9.656000000000000E-01
(PID.TID 0000.0001)     ;
(PID.TID 0000.0001) SEAICE_wetSnowAlb_south= /* Southern Ocean wetSnowAlb */
(PID.TID 0000.0001)                 8.256000000000000E-01
(PID.TID 0000.0001)     ;
(PID.TID 0000.0001) SEAICE_wetAlbTemp= /* Temp (o.C) threshold for wet-albedo */
(PID.TID 0000.0001)                -1.000000000000000E-03
(PID.TID 0000.0001)     ;
(PID.TID 0000.0001) SEAICE_snow_emiss = /* snow emissivity */
(PID.TID 0000.0001)                 9.700176366843034E-01
(PID.TID 0000.0001)     ;
(PID.TID 0000.0001) SEAICE_ice_emiss = /* seaice emissivity */
(PID.TID 0000.0001)                 9.700176366843034E-01
(PID.TID 0000.0001)     ;
(PID.TID 0000.0001) SEAICE_cpAir      = /* heat capacity of air */
(PID.TID 0000.0001)                 1.003956043956044E+03
(PID.TID 0000.0001)     ;
(PID.TID 0000.0001) SEAICE_dalton     = /* constant dalton number */
(PID.TID 0000.0001)                 1.750000000000000E-03
(PID.TID 0000.0001)     ;
(PID.TID 0000.0001) SEAICE_iceConduct = /* sea-ice conductivity */
(PID.TID 0000.0001)                 2.165600000000000E+00
(PID.TID 0000.0001)     ;
(PID.TID 0000.0001) SEAICE_snowConduct= /* snow conductivity */
(PID.TID 0000.0001)                 3.100000000000000E-01
(PID.TID 0000.0001)     ;
(PID.TID 0000.0001) SEAICE_snowThick  = /* cutoff snow thickness (for albedo) */
(PID.TID 0000.0001)                 1.500000000000000E-01
(PID.TID 0000.0001)     ;
(PID.TID 0000.0001) SEAICE_shortwave  = /* penetration shortwave radiation */
(PID.TID 0000.0001)                 3.000000000000000E-01
(PID.TID 0000.0001)     ;
(PID.TID 0000.0001) useMaykutSatVapPoly = /* use Maykut Polynomial for Sat.Vap.Pr */
(PID.TID 0000.0001)                   T
(PID.TID 0000.0001)     ;
(PID.TID 0000.0001) MIN_ATEMP         = /* minimum air temperature */
(PID.TID 0000.0001)                -4.000000000000000E+01
(PID.TID 0000.0001)     ;
(PID.TID 0000.0001) MIN_LWDOWN        = /* minimum downward longwave */
(PID.TID 0000.0001)                 6.000000000000000E+01
(PID.TID 0000.0001)     ;
(PID.TID 0000.0001) MIN_TICE          = /* minimum ice temperature */
(PID.TID 0000.0001)                -4.000000000000000E+01
(PID.TID 0000.0001)     ;
(PID.TID 0000.0001) 
(PID.TID 0000.0001)    Seaice initialization and IO config.,   > START <
(PID.TID 0000.0001)    -------------------------------------------------
(PID.TID 0000.0001) SEAICE_initialHEFF= /* initial sea-ice thickness */
(PID.TID 0000.0001)                 0.000000000000000E+00
(PID.TID 0000.0001)     ;
(PID.TID 0000.0001) AreaFile = /* Initial ice concentration File */
(PID.TID 0000.0001)               ''
(PID.TID 0000.0001)     ;
(PID.TID 0000.0001) HeffFile = /* Initial effective ice thickness File */
(PID.TID 0000.0001)               ''
(PID.TID 0000.0001)     ;
(PID.TID 0000.0001) HsnowFile = /* Initial snow thickness File */
(PID.TID 0000.0001)               ''
(PID.TID 0000.0001)     ;
(PID.TID 0000.0001) uIceFile = /* Initial U-ice velocity File */
(PID.TID 0000.0001)               ''
(PID.TID 0000.0001)     ;
(PID.TID 0000.0001) vIceFile = /* Initial V-ice velocity File */
(PID.TID 0000.0001)               ''
(PID.TID 0000.0001)     ;
(PID.TID 0000.0001) SEAICEwriteState  = /* write sea ice state to file */
(PID.TID 0000.0001)                   F
(PID.TID 0000.0001)     ;
(PID.TID 0000.0001) SEAICE_monFreq  = /* monitor frequency */
(PID.TID 0000.0001)                 1.200000000000000E+03
(PID.TID 0000.0001)     ;
(PID.TID 0000.0001) SEAICE_dumpFreq   = /* dump frequency */
(PID.TID 0000.0001)                 1.200000000000000E+03
(PID.TID 0000.0001)     ;
(PID.TID 0000.0001) SEAICE_taveFreq   = /* time-averaging frequency */
(PID.TID 0000.0001)                 0.000000000000000E+00
(PID.TID 0000.0001)     ;
(PID.TID 0000.0001) SEAICE_mon_stdio  = /* write monitor to std-outp */
(PID.TID 0000.0001)                   T
(PID.TID 0000.0001)     ;
(PID.TID 0000.0001) SEAICE_dump_mdsio = /* write snap-shot   using MDSIO */
(PID.TID 0000.0001)                   F
(PID.TID 0000.0001)     ;
(PID.TID 0000.0001) SEAICE_tave_mdsio = /* write TimeAverage using MDSIO */
(PID.TID 0000.0001)                   F
(PID.TID 0000.0001)     ;
(PID.TID 0000.0001) SEAICE_mon_mnc    = /* write monitor to netcdf file */
(PID.TID 0000.0001)                   F
(PID.TID 0000.0001)     ;
(PID.TID 0000.0001) SEAICE_dump_mnc   = /* write snap-shot   using MNC */
(PID.TID 0000.0001)                   T
(PID.TID 0000.0001)     ;
(PID.TID 0000.0001) SEAICE_tave_mnc   = /* write TimeAverage using MNC */
(PID.TID 0000.0001)                   T
(PID.TID 0000.0001)     ;
(PID.TID 0000.0001) 
(PID.TID 0000.0001)    Seaice regularization numbers,   > START <
(PID.TID 0000.0001)    -----------------------------------------------
(PID.TID 0000.0001) SEAICE_EPS        = /* reduce derivative singularities */
(PID.TID 0000.0001)                 1.000000000000000E-10
(PID.TID 0000.0001)     ;
(PID.TID 0000.0001) SEAICE_EPS_SQ     = /* reduce derivative singularities */
(PID.TID 0000.0001)                 1.000000000000000E-20
(PID.TID 0000.0001)     ;
(PID.TID 0000.0001) SEAICE_area_reg   = /* reduce derivative singularities */
(PID.TID 0000.0001)                 1.000000000000000E-05
(PID.TID 0000.0001)     ;
(PID.TID 0000.0001) SEAICE_hice_reg   = /* reduce derivative singularities */
(PID.TID 0000.0001)                 5.000000000000000E-02
(PID.TID 0000.0001)     ;
(PID.TID 0000.0001) SEAICE_area_floor = /* reduce derivative singularities */
(PID.TID 0000.0001)                 1.000000000000000E-05
(PID.TID 0000.0001)     ;
(PID.TID 0000.0001) 
(PID.TID 0000.0001) // =======================================================
(PID.TID 0000.0001) // Seaice configuration (SEAICE_PARM01) >>> END <<<
(PID.TID 0000.0001) // =======================================================
(PID.TID 0000.0001) 
(PID.TID 0000.0001) ------------------------------------------------------------
(PID.TID 0000.0001) DIAGNOSTICS_SET_LEVELS: done
(PID.TID 0000.0001)  Total Nb of available Diagnostics: ndiagt=  2530
(PID.TID 0000.0001)  write list of available Diagnostics to file: available_diagnostics.log
(PID.TID 0000.0001) SETDIAG: Allocate 24 x  1 Levels for Diagnostic #   210 TRAC01
(PID.TID 0000.0001) SETDIAG: Allocate 24 x  1 Levels for Diagnostic #   223 TRAC02
(PID.TID 0000.0001) SETDIAG: Allocate 24 x  1 Levels for Diagnostic #   236 TRAC03
(PID.TID 0000.0001) SETDIAG: Allocate 24 x  1 Levels for Diagnostic #   249 TRAC04
(PID.TID 0000.0001) SETDIAG: Allocate 24 x  1 Levels for Diagnostic #   262 TRAC05
(PID.TID 0000.0001) SETDIAG: Allocate 24 x  1 Levels for Diagnostic #   275 TRAC06
(PID.TID 0000.0001) SETDIAG: Allocate 24 x  1 Levels for Diagnostic #   288 TRAC07
(PID.TID 0000.0001) SETDIAG: Allocate 24 x  1 Levels for Diagnostic #   301 TRAC08
(PID.TID 0000.0001) SETDIAG: Allocate 24 x  1 Levels for Diagnostic #   314 TRAC09
(PID.TID 0000.0001) SETDIAG: Allocate 24 x  1 Levels for Diagnostic #   327 TRAC10
(PID.TID 0000.0001) SETDIAG: Allocate 24 x  1 Levels for Diagnostic #   340 TRAC11
(PID.TID 0000.0001) SETDIAG: Allocate 24 x  1 Levels for Diagnostic #   353 TRAC12
(PID.TID 0000.0001) SETDIAG: Allocate 24 x  1 Levels for Diagnostic #   366 TRAC13
(PID.TID 0000.0001) SETDIAG: Allocate 24 x  1 Levels for Diagnostic #   379 TRAC14
(PID.TID 0000.0001) SETDIAG: Allocate 24 x  1 Levels for Diagnostic #   392 TRAC15
(PID.TID 0000.0001) SETDIAG: Allocate 24 x  1 Levels for Diagnostic #   405 TRAC16
(PID.TID 0000.0001) SETDIAG: Allocate 24 x  1 Levels for Diagnostic #   418 TRAC17
(PID.TID 0000.0001) SETDIAG: Allocate 24 x  1 Levels for Diagnostic #   431 TRAC18
(PID.TID 0000.0001) SETDIAG: Allocate 24 x  1 Levels for Diagnostic #   444 TRAC19
(PID.TID 0000.0001) SETDIAG: Allocate 24 x  1 Levels for Diagnostic #   457 TRAC20
(PID.TID 0000.0001) SETDIAG: Allocate 24 x  1 Levels for Diagnostic #   470 TRAC21
(PID.TID 0000.0001) SETDIAG: Allocate 24 x  1 Levels for Diagnostic #   483 TRAC22
(PID.TID 0000.0001) SETDIAG: Allocate 24 x  1 Levels for Diagnostic #   496 TRAC23
(PID.TID 0000.0001) SETDIAG: Allocate 24 x  1 Levels for Diagnostic #   509 TRAC24
(PID.TID 0000.0001) SETDIAG: Allocate 24 x  1 Levels for Diagnostic #   522 TRAC25
(PID.TID 0000.0001) SETDIAG: Allocate 24 x  1 Levels for Diagnostic #   535 TRAC26
(PID.TID 0000.0001) SETDIAG: Allocate 24 x  1 Levels for Diagnostic #   548 TRAC27
(PID.TID 0000.0001) SETDIAG: Allocate 24 x  1 Levels for Diagnostic #   561 TRAC28
(PID.TID 0000.0001) SETDIAG: Allocate 24 x  1 Levels for Diagnostic #   574 TRAC29
(PID.TID 0000.0001) SETDIAG: Allocate 24 x  1 Levels for Diagnostic #   587 TRAC30
(PID.TID 0000.0001) SETDIAG: Allocate 24 x  1 Levels for Diagnostic #   600 TRAC31
(PID.TID 0000.0001) SETDIAG: Allocate 24 x  1 Levels for Diagnostic #   613 TRAC32
(PID.TID 0000.0001) SETDIAG: Allocate 24 x  1 Levels for Diagnostic #   626 TRAC33
(PID.TID 0000.0001) SETDIAG: Allocate 24 x  1 Levels for Diagnostic #   639 TRAC34
(PID.TID 0000.0001) SETDIAG: Allocate 24 x  1 Levels for Diagnostic #   652 TRAC35
(PID.TID 0000.0001) SETDIAG: Allocate 24 x  1 Levels for Diagnostic #   665 TRAC36
(PID.TID 0000.0001) SETDIAG: Allocate 24 x  1 Levels for Diagnostic #   678 TRAC37
(PID.TID 0000.0001) SETDIAG: Allocate 24 x  1 Levels for Diagnostic #   691 TRAC38
(PID.TID 0000.0001) SETDIAG: Allocate 24 x  1 Levels for Diagnostic #   704 TRAC39
(PID.TID 0000.0001) SETDIAG: Allocate 24 x  1 Levels for Diagnostic #   717 TRAC40
(PID.TID 0000.0001) SETDIAG: Allocate 24 x  1 Levels for Diagnostic #   730 TRAC41
(PID.TID 0000.0001) SETDIAG: Allocate 24 x  1 Levels for Diagnostic #   743 TRAC42
(PID.TID 0000.0001) SETDIAG: Allocate 24 x  1 Levels for Diagnostic #   756 TRAC43
(PID.TID 0000.0001) SETDIAG: Allocate 24 x  1 Levels for Diagnostic #   769 TRAC44
(PID.TID 0000.0001) SETDIAG: Allocate 24 x  1 Levels for Diagnostic #   782 TRAC45
(PID.TID 0000.0001) SETDIAG: Allocate 24 x  1 Levels for Diagnostic #   795 TRAC46
(PID.TID 0000.0001) SETDIAG: Allocate 24 x  1 Levels for Diagnostic #   808 TRAC47
(PID.TID 0000.0001) SETDIAG: Allocate 24 x  1 Levels for Diagnostic #   821 TRAC48
(PID.TID 0000.0001) SETDIAG: Allocate 24 x  1 Levels for Diagnostic #   834 TRAC49
(PID.TID 0000.0001) SETDIAG: Allocate 24 x  1 Levels for Diagnostic #   847 TRAC50
(PID.TID 0000.0001) SETDIAG: Allocate 24 x  1 Levels for Diagnostic #   860 TRAC51
(PID.TID 0000.0001) SETDIAG: Allocate 24 x  1 Levels for Diagnostic #   873 TRAC52
(PID.TID 0000.0001) SETDIAG: Allocate 24 x  1 Levels for Diagnostic #   886 TRAC53
(PID.TID 0000.0001) SETDIAG: Allocate 24 x  1 Levels for Diagnostic #   899 TRAC54
(PID.TID 0000.0001) SETDIAG: Allocate 24 x  1 Levels for Diagnostic #   912 TRAC55
(PID.TID 0000.0001) SETDIAG: Allocate 24 x  1 Levels for Diagnostic #   925 TRAC56
(PID.TID 0000.0001) SETDIAG: Allocate 24 x  1 Levels for Diagnostic #   938 TRAC57
(PID.TID 0000.0001) SETDIAG: Allocate 24 x  1 Levels for Diagnostic #   951 TRAC58
(PID.TID 0000.0001) SETDIAG: Allocate 24 x  1 Levels for Diagnostic #   964 TRAC59
(PID.TID 0000.0001) SETDIAG: Allocate 24 x  1 Levels for Diagnostic #   977 TRAC60
(PID.TID 0000.0001) SETDIAG: Allocate 24 x  1 Levels for Diagnostic #   990 TRAC61
(PID.TID 0000.0001) SETDIAG: Allocate 24 x  1 Levels for Diagnostic #  1003 TRAC62
(PID.TID 0000.0001) SETDIAG: Allocate 24 x  1 Levels for Diagnostic #  1016 TRAC63
(PID.TID 0000.0001) SETDIAG: Allocate 24 x  1 Levels for Diagnostic #  1029 TRAC64
(PID.TID 0000.0001) SETDIAG: Allocate 24 x  1 Levels for Diagnostic #  1042 TRAC65
(PID.TID 0000.0001) SETDIAG: Allocate 24 x  1 Levels for Diagnostic #  1055 TRAC66
(PID.TID 0000.0001) SETDIAG: Allocate 24 x  1 Levels for Diagnostic #  1068 TRAC67
(PID.TID 0000.0001) SETDIAG: Allocate 24 x  1 Levels for Diagnostic #  1081 TRAC68
(PID.TID 0000.0001) SETDIAG: Allocate 24 x  1 Levels for Diagnostic #  1094 TRAC69
(PID.TID 0000.0001) SETDIAG: Allocate 24 x  1 Levels for Diagnostic #  1107 TRAC70
(PID.TID 0000.0001) SETDIAG: Allocate 24 x  1 Levels for Diagnostic #  1120 TRAC71
(PID.TID 0000.0001) SETDIAG: Allocate 24 x  1 Levels for Diagnostic #  1133 TRAC72
(PID.TID 0000.0001) SETDIAG: Allocate 24 x  1 Levels for Diagnostic #  1146 TRAC73
(PID.TID 0000.0001) SETDIAG: Allocate 24 x  1 Levels for Diagnostic #  1159 TRAC74
(PID.TID 0000.0001) SETDIAG: Allocate 24 x  1 Levels for Diagnostic #  1172 TRAC75
(PID.TID 0000.0001) SETDIAG: Allocate 24 x  1 Levels for Diagnostic #  1185 TRAC76
(PID.TID 0000.0001) SETDIAG: Allocate 24 x  1 Levels for Diagnostic #  1198 TRAC77
(PID.TID 0000.0001) SETDIAG: Allocate 24 x  1 Levels for Diagnostic #  1211 TRAC78
(PID.TID 0000.0001) SETDIAG: Allocate 24 x  1 Levels for Diagnostic #  1224 TRAC79
(PID.TID 0000.0001) SETDIAG: Allocate 24 x  1 Levels for Diagnostic #  1237 TRAC80
(PID.TID 0000.0001) SETDIAG: Allocate 24 x  1 Levels for Diagnostic #  1250 TRAC81
(PID.TID 0000.0001) SETDIAG: Allocate 24 x  1 Levels for Diagnostic #  1263 TRAC82
(PID.TID 0000.0001) SETDIAG: Allocate 24 x  1 Levels for Diagnostic #  1276 TRAC83
(PID.TID 0000.0001) SETDIAG: Allocate 24 x  1 Levels for Diagnostic #  1289 TRAC84
(PID.TID 0000.0001) SETDIAG: Allocate 24 x  1 Levels for Diagnostic #  1302 TRAC85
(PID.TID 0000.0001) SETDIAG: Allocate 24 x  1 Levels for Diagnostic #  1315 TRAC86
(PID.TID 0000.0001) SETDIAG: Allocate 24 x  1 Levels for Diagnostic #  1328 TRAC87
(PID.TID 0000.0001) SETDIAG: Allocate 24 x  1 Levels for Diagnostic #  1341 TRAC88
(PID.TID 0000.0001) SETDIAG: Allocate 24 x  1 Levels for Diagnostic #  1354 TRAC89
(PID.TID 0000.0001) SETDIAG: Allocate 24 x  1 Levels for Diagnostic #  1367 TRAC90
(PID.TID 0000.0001) SETDIAG: Allocate 24 x  1 Levels for Diagnostic #  1380 TRAC91
(PID.TID 0000.0001) SETDIAG: Allocate 24 x  1 Levels for Diagnostic #  1393 TRAC92
(PID.TID 0000.0001) SETDIAG: Allocate 24 x  1 Levels for Diagnostic #  1406 TRAC93
(PID.TID 0000.0001) SETDIAG: Allocate 24 x  1 Levels for Diagnostic #  1419 TRAC94
(PID.TID 0000.0001) SETDIAG: Allocate 24 x  1 Levels for Diagnostic #  1432 TRAC95
(PID.TID 0000.0001) SETDIAG: Allocate 24 x  1 Levels for Diagnostic #  1445 TRAC96
(PID.TID 0000.0001) SETDIAG: Allocate 24 x  1 Levels for Diagnostic #  1458 TRAC97
(PID.TID 0000.0001)   space allocated for all diagnostics:    2328 levels
(PID.TID 0000.0001) DIAGNOSTICS_SET_POINTERS: Set levels for Outp.Stream: gud
(PID.TID 0000.0001)  Levels:       1.   2.   3.   4.   5.   6.   7.   8.   9.  10.  11.  12.  13.  14.  15.  16.  17.  18.  19.  20.
(PID.TID 0000.0001)  Levels:      21.  22.  23.  24.
(PID.TID 0000.0001) DIAGNOSTICS_SET_POINTERS: done
(PID.TID 0000.0001) ------------------------------------------------------------
(PID.TID 0000.0001) DIAGSTATS_SET_REGIONS: define no region
(PID.TID 0000.0001) ------------------------------------------------------------
(PID.TID 0000.0001)   space allocated for all stats-diags:       0 levels
(PID.TID 0000.0001) DIAGSTATS_SET_POINTERS: done
(PID.TID 0000.0001) ------------------------------------------------------------
(PID.TID 0000.0001) %MON fCori_max                    =   1.3473519476330014E-04
(PID.TID 0000.0001) %MON fCori_min                    =   1.1413140759593706E-04
(PID.TID 0000.0001) %MON fCori_mean                   =   1.2544553688213577E-04
(PID.TID 0000.0001) %MON fCori_sd                     =   5.0297255000289948E-06
(PID.TID 0000.0001) %MON fCoriG_max                   =   1.3464029717915468E-04
(PID.TID 0000.0001) %MON fCoriG_min                   =   1.1394771627179789E-04
(PID.TID 0000.0001) %MON fCoriG_mean                  =   1.2530547026595292E-04
(PID.TID 0000.0001) %MON fCoriG_sd                    =   5.0490402546810822E-06
(PID.TID 0000.0001) %MON fCoriCos_max                 =   9.0796739781710828E-05
(PID.TID 0000.0001) %MON fCoriCos_min                 =   5.5825204405476284E-05
(PID.TID 0000.0001) %MON fCoriCos_mean                =   7.3724492265692457E-05
(PID.TID 0000.0001) %MON fCoriCos_sd                  =   8.5349008623744150E-06
(PID.TID 0000.0001) INI_CG2D: CG2D normalisation factor =  1.3850385103405694E-03
(PID.TID 0000.0001) 
(PID.TID 0000.0001) // =======================================================
(PID.TID 0000.0001) // Model configuration
(PID.TID 0000.0001) // =======================================================
(PID.TID 0000.0001) //
(PID.TID 0000.0001) // "Physical" paramters ( PARM01 in namelist )
(PID.TID 0000.0001) //
(PID.TID 0000.0001) buoyancyRelation = /* Type of relation to get Buoyancy */
(PID.TID 0000.0001)               'OCEANIC'
(PID.TID 0000.0001)     ;
(PID.TID 0000.0001) fluidIsAir   =  /* fluid major constituent is Air */
(PID.TID 0000.0001)                   F
(PID.TID 0000.0001)     ;
(PID.TID 0000.0001) fluidIsWater =  /* fluid major constituent is Water */
(PID.TID 0000.0001)                   T
(PID.TID 0000.0001)     ;
(PID.TID 0000.0001) usingPCoords =  /* use p (or p*) vertical coordinate */
(PID.TID 0000.0001)                   F
(PID.TID 0000.0001)     ;
(PID.TID 0000.0001) usingZCoords =  /* use z (or z*) vertical coordinate */
(PID.TID 0000.0001)                   T
(PID.TID 0000.0001)     ;
(PID.TID 0000.0001) tRef =   /* Reference temperature profile ( oC or K ) */
(PID.TID 0000.0001)     3 @  2.300000000000000E+01,             /* K =  1:  3 */
(PID.TID 0000.0001)     3 @  2.200000000000000E+01,             /* K =  4:  6 */
(PID.TID 0000.0001)                 2.100000000000000E+01,      /* K =  7 */
(PID.TID 0000.0001)     2 @  2.000000000000000E+01,             /* K =  8:  9 */
(PID.TID 0000.0001)                 1.900000000000000E+01,      /* K = 10 */
(PID.TID 0000.0001)     2 @  1.800000000000000E+01,             /* K = 11: 12 */
(PID.TID 0000.0001)                 1.700000000000000E+01,      /* K = 13 */
(PID.TID 0000.0001)     2 @  1.600000000000000E+01,             /* K = 14: 15 */
(PID.TID 0000.0001)                 1.500000000000000E+01,      /* K = 16 */
(PID.TID 0000.0001)                 1.400000000000000E+01,      /* K = 17 */
(PID.TID 0000.0001)                 1.300000000000000E+01,      /* K = 18 */
(PID.TID 0000.0001)                 1.200000000000000E+01,      /* K = 19 */
(PID.TID 0000.0001)                 1.100000000000000E+01,      /* K = 20 */
(PID.TID 0000.0001)     2 @  9.000000000000000E+00,             /* K = 21: 22 */
(PID.TID 0000.0001)                 8.000000000000000E+00,      /* K = 23 */
(PID.TID 0000.0001)                 7.000000000000000E+00       /* K = 24 */
(PID.TID 0000.0001)     ;
(PID.TID 0000.0001) sRef =   /* Reference salinity profile ( psu ) */
(PID.TID 0000.0001)    24 @  3.450000000000000E+01              /* K =  1: 24 */
(PID.TID 0000.0001)     ;
(PID.TID 0000.0001) useStrainTensionVisc= /* Use StrainTension Form of Viscous Operator */
(PID.TID 0000.0001)                   F
(PID.TID 0000.0001)     ;
(PID.TID 0000.0001) useVariableVisc = /* Use variable horizontal viscosity */
(PID.TID 0000.0001)                   T
(PID.TID 0000.0001)     ;
(PID.TID 0000.0001) useHarmonicVisc = /* Use harmonic horizontal viscosity */
(PID.TID 0000.0001)                   F
(PID.TID 0000.0001)     ;
(PID.TID 0000.0001) useBiharmonicVisc= /* Use biharmonic horiz.  viscosity */
(PID.TID 0000.0001)                   T
(PID.TID 0000.0001)     ;
(PID.TID 0000.0001) useSmag3D = /* Use isotropic 3-D Smagorinsky viscosity */
(PID.TID 0000.0001)                   F
(PID.TID 0000.0001)     ;
(PID.TID 0000.0001) viscAh  =   /* Lateral harmonic viscosity ( m^2/s ) */
(PID.TID 0000.0001)                 0.000000000000000E+00
(PID.TID 0000.0001)     ;
(PID.TID 0000.0001) viscAhMax = /* Maximum lateral harmonic viscosity ( m^2/s ) */
(PID.TID 0000.0001)                 1.000000000000000E+21
(PID.TID 0000.0001)     ;
(PID.TID 0000.0001) viscAhGrid = /* Grid dependent lateral harmonic viscosity ( non-dim. ) */
(PID.TID 0000.0001)                 0.000000000000000E+00
(PID.TID 0000.0001)     ;
(PID.TID 0000.0001) useFullLeith = /* Use Full Form of Leith Viscosity on/off flag*/
(PID.TID 0000.0001)                   F
(PID.TID 0000.0001)     ;
(PID.TID 0000.0001) useAreaViscLength = /* Use area for visc length instead of geom. mean*/
(PID.TID 0000.0001)                   T
(PID.TID 0000.0001)     ;
(PID.TID 0000.0001) viscC2leith = /* Leith harmonic visc. factor (on grad(vort),non-dim.) */
(PID.TID 0000.0001)                 0.000000000000000E+00
(PID.TID 0000.0001)     ;
(PID.TID 0000.0001) viscC2leithD = /* Leith harmonic viscosity factor (on grad(div),non-dim.)*/
(PID.TID 0000.0001)                 0.000000000000000E+00
(PID.TID 0000.0001)     ;
(PID.TID 0000.0001) viscC2smag = /* Smagorinsky harmonic viscosity factor (non-dim.) */
(PID.TID 0000.0001)                 0.000000000000000E+00
(PID.TID 0000.0001)     ;
(PID.TID 0000.0001) viscA4  =   /* Lateral biharmonic viscosity ( m^4/s ) */
(PID.TID 0000.0001)                 0.000000000000000E+00
(PID.TID 0000.0001)     ;
(PID.TID 0000.0001) viscA4Max = /* Maximum biharmonic viscosity ( m^2/s ) */
(PID.TID 0000.0001)                 1.000000000000000E+21
(PID.TID 0000.0001)     ;
(PID.TID 0000.0001) viscA4Grid = /* Grid dependent biharmonic viscosity ( non-dim. ) */
(PID.TID 0000.0001)                 0.000000000000000E+00
(PID.TID 0000.0001)     ;
(PID.TID 0000.0001) viscC4leith = /* Leith biharm viscosity factor (on grad(vort), non-dim.)*/
(PID.TID 0000.0001)                 1.500000000000000E+00
(PID.TID 0000.0001)     ;
(PID.TID 0000.0001) viscC4leithD = /* Leith biharm viscosity factor (on grad(div), non-dim.) */
(PID.TID 0000.0001)                 1.500000000000000E+00
(PID.TID 0000.0001)     ;
(PID.TID 0000.0001) viscC4Smag = /* Smagorinsky biharm viscosity factor (non-dim) */
(PID.TID 0000.0001)                 0.000000000000000E+00
(PID.TID 0000.0001)     ;
(PID.TID 0000.0001) no_slip_sides =  /* Viscous BCs: No-slip sides */
(PID.TID 0000.0001)                   F
(PID.TID 0000.0001)     ;
(PID.TID 0000.0001) sideDragFactor = /* side-drag scaling factor (non-dim) */
(PID.TID 0000.0001)                 0.000000000000000E+00
(PID.TID 0000.0001)     ;
(PID.TID 0000.0001) viscArNr = /* vertical profile of vertical viscosity ( m^2/s )*/
(PID.TID 0000.0001)    24 @  6.082600000000000E-04              /* K =  1: 24 */
(PID.TID 0000.0001)     ;
(PID.TID 0000.0001) no_slip_bottom =  /* Viscous BCs: No-slip bottom */
(PID.TID 0000.0001)                   T
(PID.TID 0000.0001)     ;
(PID.TID 0000.0001) bottomDragLinear = /* linear bottom-drag coefficient ( m/s ) */
(PID.TID 0000.0001)                 0.000000000000000E+00
(PID.TID 0000.0001)     ;
(PID.TID 0000.0001) bottomDragQuadratic = /* quadratic bottom-drag coefficient (-) */
(PID.TID 0000.0001)                 2.000000000000000E-03
(PID.TID 0000.0001)     ;
(PID.TID 0000.0001) diffKhT =   /* Laplacian diffusion of heat laterally ( m^2/s ) */
(PID.TID 0000.0001)                 0.000000000000000E+00
(PID.TID 0000.0001)     ;
(PID.TID 0000.0001) diffK4T =   /* Biharmonic diffusion of heat laterally ( m^4/s ) */
(PID.TID 0000.0001)                 0.000000000000000E+00
(PID.TID 0000.0001)     ;
(PID.TID 0000.0001) diffKhS =   /* Laplacian diffusion of salt laterally ( m^2/s ) */
(PID.TID 0000.0001)                 0.000000000000000E+00
(PID.TID 0000.0001)     ;
(PID.TID 0000.0001) diffK4S =   /* Biharmonic diffusion of salt laterally ( m^4/s ) */
(PID.TID 0000.0001)                 0.000000000000000E+00
(PID.TID 0000.0001)     ;
(PID.TID 0000.0001) diffKrNrT = /* vertical profile of vertical diffusion of Temp ( m^2/s )*/
(PID.TID 0000.0001)    24 @  1.000000000000000E-06              /* K =  1: 24 */
(PID.TID 0000.0001)     ;
(PID.TID 0000.0001) diffKrNrS = /* vertical profile of vertical diffusion of Salt ( m^2/s )*/
(PID.TID 0000.0001)    24 @  1.000000000000000E-06              /* K =  1: 24 */
(PID.TID 0000.0001)     ;
(PID.TID 0000.0001) diffKrBL79surf = /* Surface diffusion for Bryan and Lewis 79 ( m^2/s ) */
(PID.TID 0000.0001)                 0.000000000000000E+00
(PID.TID 0000.0001)     ;
(PID.TID 0000.0001) diffKrBL79deep = /* Deep diffusion for Bryan and Lewis 1979 ( m^2/s ) */
(PID.TID 0000.0001)                 0.000000000000000E+00
(PID.TID 0000.0001)     ;
(PID.TID 0000.0001) diffKrBL79scl = /* Depth scale for Bryan and Lewis 1979 ( m ) */
(PID.TID 0000.0001)                 2.000000000000000E+02
(PID.TID 0000.0001)     ;
(PID.TID 0000.0001) diffKrBL79Ho = /* Turning depth for Bryan and Lewis 1979 ( m ) */
(PID.TID 0000.0001)                -2.000000000000000E+03
(PID.TID 0000.0001)     ;
(PID.TID 0000.0001) ivdc_kappa = /* Implicit Vertical Diffusivity for Convection ( m^2/s) */
(PID.TID 0000.0001)                 0.000000000000000E+00
(PID.TID 0000.0001)     ;
(PID.TID 0000.0001) hMixCriteria=  /* Criteria for mixed-layer diagnostic */
(PID.TID 0000.0001)                -8.000000000000000E-01
(PID.TID 0000.0001)     ;
(PID.TID 0000.0001) dRhoSmall =  /* Parameter for mixed-layer diagnostic */
(PID.TID 0000.0001)                 1.000000000000000E-06
(PID.TID 0000.0001)     ;
(PID.TID 0000.0001) hMixSmooth=  /* Smoothing parameter for mixed-layer diagnostic */
(PID.TID 0000.0001)                 0.000000000000000E+00
(PID.TID 0000.0001)     ;
(PID.TID 0000.0001) eosType =  /* Type of Equation of State */
(PID.TID 0000.0001)               'JMD95Z'
(PID.TID 0000.0001)     ;
(PID.TID 0000.0001) celsius2K = /* 0 degree Celsius converted to Kelvin ( K ) */
(PID.TID 0000.0001)                 2.731500000000000E+02
(PID.TID 0000.0001)     ;
(PID.TID 0000.0001) rhoConst  = /* Reference density (Boussinesq)  ( kg/m^3 ) */
(PID.TID 0000.0001)                 1.027500000000000E+03
(PID.TID 0000.0001)     ;
(PID.TID 0000.0001) rhoFacC = /* normalized Reference density @ cell-Center (-) */
(PID.TID 0000.0001)    24 @  1.000000000000000E+00              /* K =  1: 24 */
(PID.TID 0000.0001)     ;
(PID.TID 0000.0001) rhoFacF = /* normalized Reference density @ W-Interface (-) */
(PID.TID 0000.0001)    25 @  1.000000000000000E+00              /* K =  1: 25 */
(PID.TID 0000.0001)     ;
(PID.TID 0000.0001) rhoConstFresh = /* Fresh-water reference density ( kg/m^3 ) */
(PID.TID 0000.0001)                 9.998000000000000E+02
(PID.TID 0000.0001)     ;
(PID.TID 0000.0001) gravity =   /* Gravitational acceleration ( m/s^2 ) */
(PID.TID 0000.0001)                 9.810000000000000E+00
(PID.TID 0000.0001)     ;
(PID.TID 0000.0001) gBaro =   /* Barotropic gravity ( m/s^2 ) */
(PID.TID 0000.0001)                 9.810000000000000E+00
(PID.TID 0000.0001)     ;
(PID.TID 0000.0001) rotationPeriod =   /* Rotation Period ( s ) */
(PID.TID 0000.0001)                 8.616400000000000E+04
(PID.TID 0000.0001)     ;
(PID.TID 0000.0001) omega =   /* Angular velocity ( rad/s ) */
(PID.TID 0000.0001)                 7.292123516990375E-05
(PID.TID 0000.0001)     ;
(PID.TID 0000.0001) f0 =   /* Reference coriolis parameter ( 1/s ) */
(PID.TID 0000.0001)                 1.000000000000000E-04
(PID.TID 0000.0001)     ;
(PID.TID 0000.0001) beta =   /* Beta ( 1/(m.s) ) */
(PID.TID 0000.0001)                 9.999999999999999E-12
(PID.TID 0000.0001)     ;
(PID.TID 0000.0001) fPrime =   /* Second coriolis parameter ( 1/s ) */
(PID.TID 0000.0001)                 0.000000000000000E+00
(PID.TID 0000.0001)     ;
(PID.TID 0000.0001) rigidLid =   /* Rigid lid on/off flag */
(PID.TID 0000.0001)                   F
(PID.TID 0000.0001)     ;
(PID.TID 0000.0001) implicitFreeSurface =   /* Implicit free surface on/off flag */
(PID.TID 0000.0001)                   T
(PID.TID 0000.0001)     ;
(PID.TID 0000.0001) freeSurfFac =   /* Implicit free surface factor */
(PID.TID 0000.0001)                 1.000000000000000E+00
(PID.TID 0000.0001)     ;
(PID.TID 0000.0001) implicSurfPress =  /* Surface Pressure implicit factor (0-1)*/
(PID.TID 0000.0001)                 1.000000000000000E+00
(PID.TID 0000.0001)     ;
(PID.TID 0000.0001) implicDiv2Dflow =  /* Barot. Flow Div. implicit factor (0-1)*/
(PID.TID 0000.0001)                 1.000000000000000E+00
(PID.TID 0000.0001)     ;
(PID.TID 0000.0001) uniformLin_PhiSurf = /* use uniform Bo_surf on/off flag*/
(PID.TID 0000.0001)                   T
(PID.TID 0000.0001)     ;
(PID.TID 0000.0001) uniformFreeSurfLev = /* free-surface level-index is uniform */
(PID.TID 0000.0001)                   T
(PID.TID 0000.0001)     ;
(PID.TID 0000.0001) hFacMin =   /* minimum partial cell factor (hFac) */
(PID.TID 0000.0001)                 3.000000000000000E-01
(PID.TID 0000.0001)     ;
(PID.TID 0000.0001) hFacMinDr = /* minimum partial cell thickness ( m) */
(PID.TID 0000.0001)                 5.000000000000000E+01
(PID.TID 0000.0001)     ;
(PID.TID 0000.0001) exactConserv =  /* Exact Volume Conservation on/off flag*/
(PID.TID 0000.0001)                   T
(PID.TID 0000.0001)     ;
(PID.TID 0000.0001) linFSConserveTr = /* Tracer correction for Lin Free Surface on/off flag*/
(PID.TID 0000.0001)                   F
(PID.TID 0000.0001)     ;
(PID.TID 0000.0001) nonlinFreeSurf = /* Non-linear Free Surf. options (-1,0,1,2,3)*/
(PID.TID 0000.0001)                       0
(PID.TID 0000.0001)      -1,0= Off ; 1,2,3= On, 2=+rescale gU,gV, 3=+update cg2d solv.
(PID.TID 0000.0001)     ;
(PID.TID 0000.0001) hFacInf =   /* lower threshold for hFac (nonlinFreeSurf only)*/
(PID.TID 0000.0001)                 1.000000000000000E-01
(PID.TID 0000.0001)     ;
(PID.TID 0000.0001) hFacSup =   /* upper threshold for hFac (nonlinFreeSurf only)*/
(PID.TID 0000.0001)                 5.000000000000000E+00
(PID.TID 0000.0001)     ;
(PID.TID 0000.0001) select_rStar = /* r* Vertical coord. options (=0 r coord.; >0 uses r*)*/
(PID.TID 0000.0001)                       0
(PID.TID 0000.0001)     ;
(PID.TID 0000.0001) useRealFreshWaterFlux = /* Real Fresh Water Flux on/off flag*/
(PID.TID 0000.0001)                   F
(PID.TID 0000.0001)     ;
(PID.TID 0000.0001) temp_EvPrRn = /* Temp. of Evap/Prec/R (UNSET=use local T)(oC)*/
(PID.TID 0000.0001)                 1.234567000000000E+05
(PID.TID 0000.0001)     ;
(PID.TID 0000.0001) salt_EvPrRn = /* Salin. of Evap/Prec/R (UNSET=use local S)(psu)*/
(PID.TID 0000.0001)                 0.000000000000000E+00
(PID.TID 0000.0001)     ;
(PID.TID 0000.0001) selectAddFluid = /* option for mass source/sink of fluid (=0: off) */
(PID.TID 0000.0001)                       0
(PID.TID 0000.0001)     ;
(PID.TID 0000.0001) temp_addMass = /* Temp. of addMass array (UNSET=use local T)(oC)*/
(PID.TID 0000.0001)                 1.234567000000000E+05
(PID.TID 0000.0001)     ;
(PID.TID 0000.0001) salt_addMass = /* Salin. of addMass array (UNSET=use local S)(psu)*/
(PID.TID 0000.0001)                 0.000000000000000E+00
(PID.TID 0000.0001)     ;
(PID.TID 0000.0001) convertFW2Salt = /* convert F.W. Flux to Salt Flux (-1=use local S)(psu)*/
(PID.TID 0000.0001)                -1.000000000000000E+00
(PID.TID 0000.0001)     ;
(PID.TID 0000.0001) use3Dsolver = /* use 3-D pressure solver on/off flag */
(PID.TID 0000.0001)                   F
(PID.TID 0000.0001)     ;
(PID.TID 0000.0001) nonHydrostatic =  /* Non-Hydrostatic on/off flag */
(PID.TID 0000.0001)                   F
(PID.TID 0000.0001)     ;
(PID.TID 0000.0001) nh_Am2 = /* Non-Hydrostatic terms scaling factor */
(PID.TID 0000.0001)                 1.000000000000000E+00
(PID.TID 0000.0001)     ;
(PID.TID 0000.0001) implicitNHPress = /* Non-Hyd Pressure implicit factor (0-1)*/
(PID.TID 0000.0001)                 1.000000000000000E+00
(PID.TID 0000.0001)     ;
(PID.TID 0000.0001) selectNHfreeSurf = /* Non-Hyd (free-)Surface option */
(PID.TID 0000.0001)                       0
(PID.TID 0000.0001)     ;
(PID.TID 0000.0001) quasiHydrostatic = /* Quasi-Hydrostatic on/off flag */
(PID.TID 0000.0001)                   F
(PID.TID 0000.0001)     ;
(PID.TID 0000.0001) calc_wVelocity = /* vertical velocity calculation on/off flag */
(PID.TID 0000.0001)                   T
(PID.TID 0000.0001)     ;
(PID.TID 0000.0001) momStepping =  /* Momentum equation on/off flag */
(PID.TID 0000.0001)                   T
(PID.TID 0000.0001)     ;
(PID.TID 0000.0001) vectorInvariantMomentum= /* Vector-Invariant Momentum on/off */
(PID.TID 0000.0001)                   T
(PID.TID 0000.0001)     ;
(PID.TID 0000.0001) momAdvection =  /* Momentum advection on/off flag */
(PID.TID 0000.0001)                   T
(PID.TID 0000.0001)     ;
(PID.TID 0000.0001) momViscosity =  /* Momentum viscosity on/off flag */
(PID.TID 0000.0001)                   T
(PID.TID 0000.0001)     ;
(PID.TID 0000.0001) momImplVertAdv= /* Momentum implicit vert. advection on/off*/
(PID.TID 0000.0001)                   F
(PID.TID 0000.0001)     ;
(PID.TID 0000.0001) implicitViscosity = /* Implicit viscosity on/off flag */
(PID.TID 0000.0001)                   T
(PID.TID 0000.0001)     ;
(PID.TID 0000.0001) metricTerms =  /* metric-Terms on/off flag */
(PID.TID 0000.0001)                   F
(PID.TID 0000.0001)     ;
(PID.TID 0000.0001) useNHMTerms = /* Non-Hydrostatic Metric-Terms on/off */
(PID.TID 0000.0001)                   F
(PID.TID 0000.0001)     ;
(PID.TID 0000.0001) selectCoriMap = /* Coriolis Map options (0,1,2,3)*/
(PID.TID 0000.0001)                       2
(PID.TID 0000.0001)     0= f-Plane ; 1= Beta-Plane ; 2= Spherical ; 3= read from file
(PID.TID 0000.0001)     ;
(PID.TID 0000.0001) use3dCoriolis = /* 3-D Coriolis on/off flag */
(PID.TID 0000.0001)                   F
(PID.TID 0000.0001)     ;
(PID.TID 0000.0001) useCoriolis =  /* Coriolis on/off flag */
(PID.TID 0000.0001)                   T
(PID.TID 0000.0001)     ;
(PID.TID 0000.0001) useCDscheme =  /* CD scheme on/off flag */
(PID.TID 0000.0001)                   F
(PID.TID 0000.0001)     ;
(PID.TID 0000.0001) useEnergyConservingCoriolis= /* Flx-Form Coriolis scheme flag */
(PID.TID 0000.0001)                   F
(PID.TID 0000.0001)     ;
(PID.TID 0000.0001) useJamartWetPoints= /* Coriolis WetPoints method flag */
(PID.TID 0000.0001)                   F
(PID.TID 0000.0001)     ;
(PID.TID 0000.0001) useJamartMomAdv= /* V.I Non-linear terms Jamart flag */
(PID.TID 0000.0001)                   F
(PID.TID 0000.0001)     ;
(PID.TID 0000.0001) useAbsVorticity= /* V.I Works with f+zeta in Coriolis */
(PID.TID 0000.0001)                   F
(PID.TID 0000.0001)     ;
(PID.TID 0000.0001) selectVortScheme= /* V.I Scheme selector for Vorticity-Term */
(PID.TID 0000.0001)                       0
(PID.TID 0000.0001)    = 0 : enstrophy (Shallow-Water Eq.) conserving scheme by Sadourny, JAS 75
(PID.TID 0000.0001)    = 1 : same as 0 with modified hFac
(PID.TID 0000.0001)    = 2 : energy conserving scheme (used by Sadourny in JAS 75 paper)
(PID.TID 0000.0001)    = 3 : energy (general) and enstrophy (2D, nonDiv.) conserving scheme
(PID.TID 0000.0001)          from Sadourny (Burridge & Haseler, ECMWF Rep.4, 1977)
(PID.TID 0000.0001)     ;
(PID.TID 0000.0001) upwindVorticity= /* V.I Upwind bias vorticity flag */
(PID.TID 0000.0001)                   F
(PID.TID 0000.0001)     ;
(PID.TID 0000.0001) highOrderVorticity= /* V.I High order vort. advect. flag */
(PID.TID 0000.0001)                   T
(PID.TID 0000.0001)     ;
(PID.TID 0000.0001) upwindShear= /* V.I Upwind vertical Shear advection flag */
(PID.TID 0000.0001)                   F
(PID.TID 0000.0001)     ;
(PID.TID 0000.0001) selectKEscheme= /* V.I Kinetic Energy scheme selector */
(PID.TID 0000.0001)                       0
(PID.TID 0000.0001)     ;
(PID.TID 0000.0001) momForcing =  /* Momentum forcing on/off flag */
(PID.TID 0000.0001)                   T
(PID.TID 0000.0001)     ;
(PID.TID 0000.0001) momPressureForcing =  /* Momentum pressure term on/off flag */
(PID.TID 0000.0001)                   T
(PID.TID 0000.0001)     ;
(PID.TID 0000.0001) implicitIntGravWave= /* Implicit Internal Gravity Wave flag */
(PID.TID 0000.0001)                   F
(PID.TID 0000.0001)     ;
(PID.TID 0000.0001) staggerTimeStep =    /* Stagger time stepping on/off flag */
(PID.TID 0000.0001)                   T
(PID.TID 0000.0001)     ;
(PID.TID 0000.0001) doResetHFactors = /* reset thickness factors @ each time-step */
(PID.TID 0000.0001)                   F
(PID.TID 0000.0001)     ;
(PID.TID 0000.0001) multiDimAdvection =  /* enable/disable Multi-Dim Advection */
(PID.TID 0000.0001)                   T
(PID.TID 0000.0001)     ;
(PID.TID 0000.0001) useMultiDimAdvec =   /* Multi-Dim Advection is/is-not used */
(PID.TID 0000.0001)                   T
(PID.TID 0000.0001)     ;
(PID.TID 0000.0001) implicitDiffusion = /* Implicit Diffusion on/off flag */
(PID.TID 0000.0001)                   T
(PID.TID 0000.0001)     ;
(PID.TID 0000.0001) tempStepping =  /* Temperature equation on/off flag */
(PID.TID 0000.0001)                   T
(PID.TID 0000.0001)     ;
(PID.TID 0000.0001) tempAdvection = /* Temperature advection on/off flag */
(PID.TID 0000.0001)                   T
(PID.TID 0000.0001)     ;
(PID.TID 0000.0001) tempImplVertAdv = /* Temp. implicit vert. advection on/off */
(PID.TID 0000.0001)                   F
(PID.TID 0000.0001)     ;
(PID.TID 0000.0001) tempForcing  =  /* Temperature forcing on/off flag */
(PID.TID 0000.0001)                   T
(PID.TID 0000.0001)     ;
(PID.TID 0000.0001) doThetaClimRelax = /* apply SST relaxation on/off flag */
(PID.TID 0000.0001)                   F
(PID.TID 0000.0001)     ;
(PID.TID 0000.0001) tempIsActiveTr = /* Temp. is a dynamically Active Tracer */
(PID.TID 0000.0001)                   T
(PID.TID 0000.0001)     ;
(PID.TID 0000.0001) saltStepping =  /* Salinity equation on/off flag */
(PID.TID 0000.0001)                   T
(PID.TID 0000.0001)     ;
(PID.TID 0000.0001) saltAdvection = /* Salinity advection on/off flag */
(PID.TID 0000.0001)                   T
(PID.TID 0000.0001)     ;
(PID.TID 0000.0001) saltImplVertAdv = /* Sali. implicit vert. advection on/off */
(PID.TID 0000.0001)                   F
(PID.TID 0000.0001)     ;
(PID.TID 0000.0001) saltForcing  =  /* Salinity forcing on/off flag */
(PID.TID 0000.0001)                   T
(PID.TID 0000.0001)     ;
(PID.TID 0000.0001) doSaltClimRelax = /* apply SSS relaxation on/off flag */
(PID.TID 0000.0001)                   T
(PID.TID 0000.0001)     ;
(PID.TID 0000.0001) saltIsActiveTr = /* Salt  is a dynamically Active Tracer */
(PID.TID 0000.0001)                   T
(PID.TID 0000.0001)     ;
(PID.TID 0000.0001)  readBinaryPrec = /* Precision used for reading binary files */
(PID.TID 0000.0001)                      32
(PID.TID 0000.0001)     ;
(PID.TID 0000.0001) writeBinaryPrec = /* Precision used for writing binary files */
(PID.TID 0000.0001)                      64
(PID.TID 0000.0001)     ;
(PID.TID 0000.0001)  globalFiles = /* write "global" (=not per tile) files */
(PID.TID 0000.0001)                   T
(PID.TID 0000.0001)     ;
(PID.TID 0000.0001)  useSingleCpuIO = /* only master MPI process does I/O */
(PID.TID 0000.0001)                   T
(PID.TID 0000.0001)     ;
(PID.TID 0000.0001)  useSingleCpuInput = /* only master process reads input */
(PID.TID 0000.0001)                   T
(PID.TID 0000.0001)     ;
(PID.TID 0000.0001) /* debLev[*]  : level of debug & auxiliary message printing */
(PID.TID 0000.0001) debLevZero =  0 ; /* level of disabled aux. msg printing */
(PID.TID 0000.0001)    debLevA =  1 ; /* level of minimum  aux. msg printing */
(PID.TID 0000.0001)    debLevB =  2 ; /* level of low aux. print (report read-file opening)*/
(PID.TID 0000.0001)    debLevC =  3 ; /* level of moderate debug prt (most pkgs debug msg) */
(PID.TID 0000.0001)    debLevD =  4 ; /* level of enhanced debug prt (add DEBUG_STATS prt) */
(PID.TID 0000.0001)    debLevE =  5 ; /* level of extensive debug printing */
(PID.TID 0000.0001) debugLevel =  /* select debug printing level */
(PID.TID 0000.0001)                       2
(PID.TID 0000.0001)     ;
(PID.TID 0000.0001) //
(PID.TID 0000.0001) // Elliptic solver(s) paramters ( PARM02 in namelist )
(PID.TID 0000.0001) //
(PID.TID 0000.0001) cg2dMaxIters =   /* Upper limit on 2d con. grad iterations  */
(PID.TID 0000.0001)                     100
(PID.TID 0000.0001)     ;
(PID.TID 0000.0001) cg2dChkResFreq =   /* 2d con. grad convergence test frequency */
(PID.TID 0000.0001)                       1
(PID.TID 0000.0001)     ;
(PID.TID 0000.0001) cg2dUseMinResSol= /* use cg2d last-iter(=0) / min-resid.(=1) solution */
(PID.TID 0000.0001)                       0
(PID.TID 0000.0001)     ;
(PID.TID 0000.0001) cg2dTargetResidual =   /* 2d con. grad target residual  */
(PID.TID 0000.0001)                 1.000000000000000E-05
(PID.TID 0000.0001)     ;
(PID.TID 0000.0001) cg2dTargetResWunit =   /* CG2d target residual [W units] */
(PID.TID 0000.0001)                -1.000000000000000E+00
(PID.TID 0000.0001)     ;
(PID.TID 0000.0001) cg2dPreCondFreq =   /* Freq. for updating cg2d preconditioner */
(PID.TID 0000.0001)                       1
(PID.TID 0000.0001)     ;
(PID.TID 0000.0001) useSRCGSolver =  /* use single reduction CG solver(s) */
(PID.TID 0000.0001)                   F
(PID.TID 0000.0001)     ;
(PID.TID 0000.0001) printResidualFreq = /* Freq. for printing CG residual */
(PID.TID 0000.0001)                       0
(PID.TID 0000.0001)     ;
(PID.TID 0000.0001) //
(PID.TID 0000.0001) // Time stepping paramters ( PARM03 in namelist )
(PID.TID 0000.0001) //
(PID.TID 0000.0001) deltaTMom =   /* Momentum equation timestep ( s ) */
(PID.TID 0000.0001)                 1.200000000000000E+03
(PID.TID 0000.0001)     ;
(PID.TID 0000.0001) deltaTFreeSurf = /* FreeSurface equation timestep ( s ) */
(PID.TID 0000.0001)                 1.200000000000000E+03
(PID.TID 0000.0001)     ;
(PID.TID 0000.0001) dTtracerLev =  /* Tracer equation timestep ( s ) */
(PID.TID 0000.0001)    24 @  1.200000000000000E+03              /* K =  1: 24 */
(PID.TID 0000.0001)     ;
(PID.TID 0000.0001) deltaTClock  =   /* Model clock timestep ( s ) */
(PID.TID 0000.0001)                 1.200000000000000E+03
(PID.TID 0000.0001)     ;
(PID.TID 0000.0001) cAdjFreq =   /* Convective adjustment interval ( s ) */
(PID.TID 0000.0001)                 0.000000000000000E+00
(PID.TID 0000.0001)     ;
(PID.TID 0000.0001) momForcingOutAB = /* =1: take Momentum Forcing out of Adams-Bash. stepping */
(PID.TID 0000.0001)                       1
(PID.TID 0000.0001)     ;
(PID.TID 0000.0001) tracForcingOutAB = /* =1: take T,S,pTr Forcing out of Adams-Bash. stepping */
(PID.TID 0000.0001)                       1
(PID.TID 0000.0001)     ;
(PID.TID 0000.0001) momDissip_In_AB = /* put Dissipation Tendency in Adams-Bash. stepping */
(PID.TID 0000.0001)                   T
(PID.TID 0000.0001)     ;
(PID.TID 0000.0001) doAB_onGtGs = /* apply AB on Tendencies (rather than on T,S)*/
(PID.TID 0000.0001)                   T
(PID.TID 0000.0001)     ;
(PID.TID 0000.0001) abEps =   /* Adams-Bashforth-2 stabilizing weight */
(PID.TID 0000.0001)                 1.000000000000000E-01
(PID.TID 0000.0001)     ;
(PID.TID 0000.0001) pickupStrictlyMatch= /* stop if pickup do not strictly match */
(PID.TID 0000.0001)                   F
(PID.TID 0000.0001)     ;
(PID.TID 0000.0001) nIter0   =   /* Run starting timestep number */
(PID.TID 0000.0001)                  188388
(PID.TID 0000.0001)     ;
(PID.TID 0000.0001) nTimeSteps = /* Number of timesteps */
(PID.TID 0000.0001)                       4
(PID.TID 0000.0001)     ;
(PID.TID 0000.0001) nEndIter =   /* Run ending timestep number */
(PID.TID 0000.0001)                  188392
(PID.TID 0000.0001)     ;
(PID.TID 0000.0001) baseTime =   /* Model base time ( s ) */
(PID.TID 0000.0001)                 0.000000000000000E+00
(PID.TID 0000.0001)     ;
(PID.TID 0000.0001) startTime =  /* Run start time ( s ) */
(PID.TID 0000.0001)                 2.260656000000000E+08
(PID.TID 0000.0001)     ;
(PID.TID 0000.0001) endTime  =   /* Integration ending time ( s ) */
(PID.TID 0000.0001)                 2.260704000000000E+08
(PID.TID 0000.0001)     ;
(PID.TID 0000.0001) pChkPtFreq = /* Permanent restart/pickup file interval ( s ) */
(PID.TID 0000.0001)                 2.678400000000000E+06
(PID.TID 0000.0001)     ;
(PID.TID 0000.0001) chkPtFreq  = /* Rolling restart/pickup file interval ( s ) */
(PID.TID 0000.0001)                 2.592000000000000E+06
(PID.TID 0000.0001)     ;
(PID.TID 0000.0001) pickup_write_mdsio =   /* Model IO flag. */
(PID.TID 0000.0001)                   T
(PID.TID 0000.0001)     ;
(PID.TID 0000.0001) pickup_read_mdsio =   /* Model IO flag. */
(PID.TID 0000.0001)                   T
(PID.TID 0000.0001)     ;
(PID.TID 0000.0001) pickup_write_mnc =   /* Model IO flag. */
(PID.TID 0000.0001)                   F
(PID.TID 0000.0001)     ;
(PID.TID 0000.0001) pickup_read_mnc =   /* Model IO flag. */
(PID.TID 0000.0001)                   F
(PID.TID 0000.0001)     ;
(PID.TID 0000.0001) pickup_write_immed =   /* Model IO flag. */
(PID.TID 0000.0001)                   F
(PID.TID 0000.0001)     ;
(PID.TID 0000.0001) writePickupAtEnd =   /* Model IO flag. */
(PID.TID 0000.0001)                   T
(PID.TID 0000.0001)     ;
(PID.TID 0000.0001) dumpFreq =   /* Model state write out interval ( s ). */
(PID.TID 0000.0001)                 1.200000000000000E+03
(PID.TID 0000.0001)     ;
(PID.TID 0000.0001) dumpInitAndLast= /* write out Initial & Last iter. model state */
(PID.TID 0000.0001)                   T
(PID.TID 0000.0001)     ;
(PID.TID 0000.0001) snapshot_mdsio =   /* Model IO flag. */
(PID.TID 0000.0001)                   F
(PID.TID 0000.0001)     ;
(PID.TID 0000.0001) snapshot_mnc =   /* Model IO flag. */
(PID.TID 0000.0001)                   T
(PID.TID 0000.0001)     ;
(PID.TID 0000.0001) monitorFreq =   /* Monitor output interval ( s ). */
(PID.TID 0000.0001)                 1.200000000000000E+03
(PID.TID 0000.0001)     ;
(PID.TID 0000.0001) monitorSelect = /* select group of variables to monitor */
(PID.TID 0000.0001)                       3
(PID.TID 0000.0001)     ;
(PID.TID 0000.0001) monitor_stdio =   /* Model IO flag. */
(PID.TID 0000.0001)                   T
(PID.TID 0000.0001)     ;
(PID.TID 0000.0001) monitor_mnc =   /* Model IO flag. */
(PID.TID 0000.0001)                   F
(PID.TID 0000.0001)     ;
(PID.TID 0000.0001) externForcingPeriod =   /* forcing period (s) */
(PID.TID 0000.0001)                 0.000000000000000E+00
(PID.TID 0000.0001)     ;
(PID.TID 0000.0001) externForcingCycle =   /* period of the cyle (s). */
(PID.TID 0000.0001)                 0.000000000000000E+00
(PID.TID 0000.0001)     ;
(PID.TID 0000.0001) tauThetaClimRelax =   /* relaxation time scale (s) */
(PID.TID 0000.0001)                 0.000000000000000E+00
(PID.TID 0000.0001)     ;
(PID.TID 0000.0001) tauSaltClimRelax =   /* relaxation time scale (s) */
(PID.TID 0000.0001)                 8.722203000000000E+06
(PID.TID 0000.0001)     ;
(PID.TID 0000.0001) latBandClimRelax =   /* max. Lat. where relaxation */
(PID.TID 0000.0001)                 1.800000000000000E+02
(PID.TID 0000.0001)     ;
(PID.TID 0000.0001) //
(PID.TID 0000.0001) // Gridding paramters ( PARM04 in namelist )
(PID.TID 0000.0001) //
(PID.TID 0000.0001) usingCartesianGrid = /* Cartesian coordinates flag ( True/False ) */
(PID.TID 0000.0001)                   F
(PID.TID 0000.0001)     ;
(PID.TID 0000.0001) usingCylindricalGrid = /* Cylindrical coordinates flag ( True/False ) */
(PID.TID 0000.0001)                   F
(PID.TID 0000.0001)     ;
(PID.TID 0000.0001) usingSphericalPolarGrid = /* Spherical coordinates flag ( True/False ) */
(PID.TID 0000.0001)                   F
(PID.TID 0000.0001)     ;
(PID.TID 0000.0001) usingCurvilinearGrid = /* Curvilinear coordinates flag ( True/False ) */
(PID.TID 0000.0001)                   T
(PID.TID 0000.0001)     ;
(PID.TID 0000.0001) selectSigmaCoord = /* Hybrid-Sigma Vert. Coordinate option */
(PID.TID 0000.0001)                       0
(PID.TID 0000.0001)     ;
(PID.TID 0000.0001) Ro_SeaLevel = /* r(1) ( units of r ==  m ) */
(PID.TID 0000.0001)                 0.000000000000000E+00
(PID.TID 0000.0001)     ;
(PID.TID 0000.0001) rSigmaBnd = /* r/sigma transition ( units of r ==  m ) */
(PID.TID 0000.0001)                 1.234567000000000E+05
(PID.TID 0000.0001)     ;
(PID.TID 0000.0001) rkSign =   /* index orientation relative to vertical coordinate */
(PID.TID 0000.0001)                -1.000000000000000E+00
(PID.TID 0000.0001)     ;
(PID.TID 0000.0001) gravitySign = /* gravity orientation relative to vertical coordinate */
(PID.TID 0000.0001)                -1.000000000000000E+00
(PID.TID 0000.0001)     ;
(PID.TID 0000.0001) mass2rUnit = /* convert mass per unit area [kg/m2] to r-units [m] */
(PID.TID 0000.0001)                 9.732360097323601E-04
(PID.TID 0000.0001)     ;
(PID.TID 0000.0001) rUnit2mass = /* convert r-units [m] to mass per unit area [kg/m2] */
(PID.TID 0000.0001)                 1.027500000000000E+03
(PID.TID 0000.0001)     ;
(PID.TID 0000.0001) drC =   /* C spacing ( units of r ) */
(PID.TID 0000.0001)                 5.000000000000000E+00,      /* K =  1 */
(PID.TID 0000.0001)     6 @  1.000000000000000E+01,             /* K =  2:  7 */
(PID.TID 0000.0001)                 1.000500000000000E+01,      /* K =  8 */
(PID.TID 0000.0001)                 1.002000000000000E+01,      /* K =  9 */
(PID.TID 0000.0001)                 1.007000000000000E+01,      /* K = 10 */
(PID.TID 0000.0001)                 1.021500000000000E+01,      /* K = 11 */
(PID.TID 0000.0001)                 1.056000000000000E+01,      /* K = 12 */
(PID.TID 0000.0001)                 1.128000000000000E+01,      /* K = 13 */
(PID.TID 0000.0001)                 1.259000000000000E+01,      /* K = 14 */
(PID.TID 0000.0001)                 1.473000000000000E+01,      /* K = 15 */
(PID.TID 0000.0001)                 1.793000000000000E+01,      /* K = 16 */
(PID.TID 0000.0001)                 2.233500000000000E+01,      /* K = 17 */
(PID.TID 0000.0001)                 2.797500000000000E+01,      /* K = 18 */
(PID.TID 0000.0001)                 3.476000000000001E+01,      /* K = 19 */
(PID.TID 0000.0001)                 4.246000000000000E+01,      /* K = 20 */
(PID.TID 0000.0001)                 5.075000000000000E+01,      /* K = 21 */
(PID.TID 0000.0001)                 5.925000000000000E+01,      /* K = 22 */
(PID.TID 0000.0001)                 6.753999999999999E+01,      /* K = 23 */
(PID.TID 0000.0001)                 7.524000000000001E+01,      /* K = 24 */
(PID.TID 0000.0001)                 3.945000000000000E+01       /* K = 25 */
(PID.TID 0000.0001)     ;
(PID.TID 0000.0001) drF =   /* W spacing ( units of r ) */
(PID.TID 0000.0001)     7 @  1.000000000000000E+01,             /* K =  1:  7 */
(PID.TID 0000.0001)                 1.001000000000000E+01,      /* K =  8 */
(PID.TID 0000.0001)                 1.003000000000000E+01,      /* K =  9 */
(PID.TID 0000.0001)                 1.011000000000000E+01,      /* K = 10 */
(PID.TID 0000.0001)                 1.032000000000000E+01,      /* K = 11 */
(PID.TID 0000.0001)                 1.080000000000000E+01,      /* K = 12 */
(PID.TID 0000.0001)                 1.176000000000000E+01,      /* K = 13 */
(PID.TID 0000.0001)                 1.342000000000000E+01,      /* K = 14 */
(PID.TID 0000.0001)                 1.604000000000000E+01,      /* K = 15 */
(PID.TID 0000.0001)                 1.982000000000000E+01,      /* K = 16 */
(PID.TID 0000.0001)                 2.485000000000000E+01,      /* K = 17 */
(PID.TID 0000.0001)                 3.110000000000000E+01,      /* K = 18 */
(PID.TID 0000.0001)                 3.842000000000000E+01,      /* K = 19 */
(PID.TID 0000.0001)                 4.650000000000000E+01,      /* K = 20 */
(PID.TID 0000.0001)                 5.500000000000000E+01,      /* K = 21 */
(PID.TID 0000.0001)                 6.350000000000000E+01,      /* K = 22 */
(PID.TID 0000.0001)                 7.158000000000000E+01,      /* K = 23 */
(PID.TID 0000.0001)                 7.890000000000001E+01       /* K = 24 */
(PID.TID 0000.0001)     ;
(PID.TID 0000.0001) radius_fromHorizGrid = /* sphere Radius of input horiz. grid */
(PID.TID 0000.0001)                 6.370000000000000E+06
(PID.TID 0000.0001)     ;
(PID.TID 0000.0001) rSphere =  /* Radius ( ignored - cartesian, m - spherical ) */
(PID.TID 0000.0001)                 6.370000000000000E+06
(PID.TID 0000.0001)     ;
(PID.TID 0000.0001) deepAtmosphere = /* Deep/Shallow Atmosphere flag (True/False) */
(PID.TID 0000.0001)                   F
(PID.TID 0000.0001)     ;
(PID.TID 0000.0001) xC =  /* xC(:,1,:,1) : P-point X coord ( deg. or m if cartesian) */
(PID.TID 0000.0001)                 2.302801132202148E+01,      /* I =  1 */
(PID.TID 0000.0001)                 2.313455772399902E+01,      /* I =  2 */
(PID.TID 0000.0001)                 2.324206161499023E+01,      /* I =  3 */
(PID.TID 0000.0001)      . . .
(PID.TID 0000.0001)                 2.485174751281738E+01,      /* I = 17 */
(PID.TID 0000.0001)                 2.497451591491699E+01,      /* I = 18 */
(PID.TID 0000.0001)                 2.509836769104004E+01,      /* I = 19 */
(PID.TID 0000.0001)                 2.522331237792969E+01,      /* I = 20 */
(PID.TID 0000.0001)                 2.534935951232910E+01,      /* I = 21 */
(PID.TID 0000.0001)                 2.547651863098145E+01,      /* I = 22 */
(PID.TID 0000.0001)      . . .
(PID.TID 0000.0001)                 2.737910652160645E+01,      /* I = 36 */
(PID.TID 0000.0001)                 2.752417564392090E+01,      /* I = 37 */
(PID.TID 0000.0001)                 2.767053031921387E+01,      /* I = 38 */
(PID.TID 0000.0001)                 2.781818008422852E+01,      /* I = 39 */
(PID.TID 0000.0001)                 2.796714019775391E+01,      /* I = 40 */
(PID.TID 0000.0001)                 2.811742019653320E+01,      /* I = 41 */
(PID.TID 0000.0001)      . . .
(PID.TID 0000.0001)                 3.036766815185547E+01,      /* I = 55 */
(PID.TID 0000.0001)                 3.053942489624023E+01,      /* I = 56 */
(PID.TID 0000.0001)                 3.071273422241211E+01,      /* I = 57 */
(PID.TID 0000.0001)                 3.088761138916016E+01,      /* I = 58 */
(PID.TID 0000.0001)                 3.106407165527344E+01,      /* I = 59 */
(PID.TID 0000.0001)                 3.124213218688965E+01,      /* I = 60 */
(PID.TID 0000.0001)      . . .
(PID.TID 0000.0001)                 3.391292953491211E+01,      /* I = 74 */
(PID.TID 0000.0001)                 3.411715316772461E+01,      /* I = 75 */
(PID.TID 0000.0001)                 3.432328033447266E+01       /* I = 76 */
(PID.TID 0000.0001)     ;
(PID.TID 0000.0001) yC =  /* yC(1,:,1,:) : P-point Y coord ( deg. or m if cartesian) */
(PID.TID 0000.0001)                 5.149615097045898E+01,      /* J =  1 */
(PID.TID 0000.0001)                 5.154657363891602E+01,      /* J =  2 */
(PID.TID 0000.0001)                 5.159649658203125E+01,      /* J =  3 */
(PID.TID 0000.0001)      . . .
(PID.TID 0000.0001)                 5.219993209838867E+01,      /* J = 16 */
(PID.TID 0000.0001)                 5.224282073974609E+01,      /* J = 17 */
(PID.TID 0000.0001)                 5.228519821166992E+01,      /* J = 18 */
(PID.TID 0000.0001)                 5.232706832885742E+01,      /* J = 19 */
(PID.TID 0000.0001)                 5.236842727661133E+01,      /* J = 20 */
(PID.TID 0000.0001)                 5.240927505493164E+01,      /* J = 21 */
(PID.TID 0000.0001)      . . .
(PID.TID 0000.0001)                 5.289355850219727E+01,      /* J = 34 */
(PID.TID 0000.0001)                 5.292719268798828E+01,      /* J = 35 */
(PID.TID 0000.0001)                 5.296030426025391E+01,      /* J = 36 */
(PID.TID 0000.0001)                 5.299289321899414E+01,      /* J = 37 */
(PID.TID 0000.0001)                 5.302496337890625E+01,      /* J = 38 */
(PID.TID 0000.0001)                 5.305651092529297E+01,      /* J = 39 */
(PID.TID 0000.0001)      . . .
(PID.TID 0000.0001)                 5.341885757446289E+01,      /* J = 52 */
(PID.TID 0000.0001)                 5.344303512573242E+01,      /* J = 53 */
(PID.TID 0000.0001)                 5.346668624877930E+01,      /* J = 54 */
(PID.TID 0000.0001)                 5.348980331420898E+01,      /* J = 55 */
(PID.TID 0000.0001)                 5.351239013671875E+01,      /* J = 56 */
(PID.TID 0000.0001)                 5.353444671630859E+01,      /* J = 57 */
(PID.TID 0000.0001)      . . .
(PID.TID 0000.0001)                 5.377260971069336E+01,      /* J = 70 */
(PID.TID 0000.0001)                 5.378718185424805E+01,      /* J = 71 */
(PID.TID 0000.0001)                 5.380121612548828E+01       /* J = 72 */
(PID.TID 0000.0001)     ;
(PID.TID 0000.0001) rcoord = /* P-point R coordinate (  units of r ) */
(PID.TID 0000.0001)                -5.000000000000000E+00,      /* K =  1 */
(PID.TID 0000.0001)                -1.500000000000000E+01,      /* K =  2 */
(PID.TID 0000.0001)                -2.500000000000000E+01,      /* K =  3 */
(PID.TID 0000.0001)                -3.500000000000000E+01,      /* K =  4 */
(PID.TID 0000.0001)                -4.500000000000000E+01,      /* K =  5 */
(PID.TID 0000.0001)                -5.500000000000000E+01,      /* K =  6 */
(PID.TID 0000.0001)                -6.500000000000000E+01,      /* K =  7 */
(PID.TID 0000.0001)                -7.500500000000000E+01,      /* K =  8 */
(PID.TID 0000.0001)                -8.502499999999999E+01,      /* K =  9 */
(PID.TID 0000.0001)                -9.509500000000000E+01,      /* K = 10 */
(PID.TID 0000.0001)                -1.053100000000000E+02,      /* K = 11 */
(PID.TID 0000.0001)                -1.158700000000000E+02,      /* K = 12 */
(PID.TID 0000.0001)                -1.271500000000000E+02,      /* K = 13 */
(PID.TID 0000.0001)                -1.397400000000000E+02,      /* K = 14 */
(PID.TID 0000.0001)                -1.544700000000000E+02,      /* K = 15 */
(PID.TID 0000.0001)                -1.724000000000000E+02,      /* K = 16 */
(PID.TID 0000.0001)                -1.947350000000000E+02,      /* K = 17 */
(PID.TID 0000.0001)                -2.227100000000000E+02,      /* K = 18 */
(PID.TID 0000.0001)                -2.574700000000000E+02,      /* K = 19 */
(PID.TID 0000.0001)                -2.999300000000000E+02,      /* K = 20 */
(PID.TID 0000.0001)                -3.506800000000000E+02,      /* K = 21 */
(PID.TID 0000.0001)                -4.099300000000000E+02,      /* K = 22 */
(PID.TID 0000.0001)                -4.774700000000000E+02,      /* K = 23 */
(PID.TID 0000.0001)                -5.527100000000000E+02       /* K = 24 */
(PID.TID 0000.0001)     ;
(PID.TID 0000.0001) rF =   /* W-Interf. R coordinate (  units of r ) */
(PID.TID 0000.0001)                 0.000000000000000E+00,      /* K =  1 */
(PID.TID 0000.0001)                -1.000000000000000E+01,      /* K =  2 */
(PID.TID 0000.0001)                -2.000000000000000E+01,      /* K =  3 */
(PID.TID 0000.0001)                -3.000000000000000E+01,      /* K =  4 */
(PID.TID 0000.0001)                -4.000000000000000E+01,      /* K =  5 */
(PID.TID 0000.0001)                -5.000000000000000E+01,      /* K =  6 */
(PID.TID 0000.0001)                -6.000000000000000E+01,      /* K =  7 */
(PID.TID 0000.0001)                -7.000000000000000E+01,      /* K =  8 */
(PID.TID 0000.0001)                -8.001000000000001E+01,      /* K =  9 */
(PID.TID 0000.0001)                -9.004000000000001E+01,      /* K = 10 */
(PID.TID 0000.0001)                -1.001500000000000E+02,      /* K = 11 */
(PID.TID 0000.0001)                -1.104700000000000E+02,      /* K = 12 */
(PID.TID 0000.0001)                -1.212700000000000E+02,      /* K = 13 */
(PID.TID 0000.0001)                -1.330300000000000E+02,      /* K = 14 */
(PID.TID 0000.0001)                -1.464500000000000E+02,      /* K = 15 */
(PID.TID 0000.0001)                -1.624900000000000E+02,      /* K = 16 */
(PID.TID 0000.0001)                -1.823100000000000E+02,      /* K = 17 */
(PID.TID 0000.0001)                -2.071600000000000E+02,      /* K = 18 */
(PID.TID 0000.0001)                -2.382600000000000E+02,      /* K = 19 */
(PID.TID 0000.0001)                -2.766799999999999E+02,      /* K = 20 */
(PID.TID 0000.0001)                -3.231799999999999E+02,      /* K = 21 */
(PID.TID 0000.0001)                -3.781799999999999E+02,      /* K = 22 */
(PID.TID 0000.0001)                -4.416799999999999E+02,      /* K = 23 */
(PID.TID 0000.0001)                -5.132600000000000E+02,      /* K = 24 */
(PID.TID 0000.0001)                -5.921600000000000E+02       /* K = 25 */
(PID.TID 0000.0001)     ;
(PID.TID 0000.0001) deepFacC = /* deep-model grid factor @ cell-Center (-) */
(PID.TID 0000.0001)    24 @  1.000000000000000E+00              /* K =  1: 24 */
(PID.TID 0000.0001)     ;
(PID.TID 0000.0001) deepFacF = /* deep-model grid factor @ W-Interface (-) */
(PID.TID 0000.0001)    25 @  1.000000000000000E+00              /* K =  1: 25 */
(PID.TID 0000.0001)     ;
(PID.TID 0000.0001) rVel2wUnit = /* convert units: rVel -> wSpeed (=1 if z-coord)*/
(PID.TID 0000.0001)    25 @  1.000000000000000E+00              /* K =  1: 25 */
(PID.TID 0000.0001)     ;
(PID.TID 0000.0001) wUnit2rVel = /* convert units: wSpeed -> rVel (=1 if z-coord)*/
(PID.TID 0000.0001)    25 @  1.000000000000000E+00              /* K =  1: 25 */
(PID.TID 0000.0001)     ;
(PID.TID 0000.0001) dBdrRef = /* Vertical grad. of reference buoyancy [(m/s/r)^2] */
(PID.TID 0000.0001)     3 @  0.000000000000000E+00,             /* K =  1:  3 */
(PID.TID 0000.0001)                 2.710009878211941E-04,      /* K =  4 */
(PID.TID 0000.0001)     2 @  0.000000000000000E+00,             /* K =  5:  6 */
(PID.TID 0000.0001)                 2.636625418269014E-04,      /* K =  7 */
(PID.TID 0000.0001)                 2.558031727841269E-04,      /* K =  8 */
(PID.TID 0000.0001)                 0.000000000000000E+00,      /* K =  9 */
(PID.TID 0000.0001)                 2.465097609409217E-04,      /* K = 10 */
(PID.TID 0000.0001)                 2.352100435611475E-04,      /* K = 11 */
(PID.TID 0000.0001)                 0.000000000000000E+00,      /* K = 12 */
(PID.TID 0000.0001)                 2.059824810681317E-04,      /* K = 13 */
(PID.TID 0000.0001)                 1.780333657351851E-04,      /* K = 14 */
(PID.TID 0000.0001)                 0.000000000000000E+00,      /* K = 15 */
(PID.TID 0000.0001)                 1.205267729858628E-04,      /* K = 16 */
(PID.TID 0000.0001)                 9.301885331159507E-05,      /* K = 17 */
(PID.TID 0000.0001)                 7.126049663232381E-05,      /* K = 18 */
(PID.TID 0000.0001)                 5.492180008088694E-05,      /* K = 19 */
(PID.TID 0000.0001)                 4.297011162312342E-05,      /* K = 20 */
(PID.TID 0000.0001)                 6.668082313416848E-05,      /* K = 21 */
(PID.TID 0000.0001)                 0.000000000000000E+00,      /* K = 22 */
(PID.TID 0000.0001)                 2.326903218052740E-05,      /* K = 23 */
(PID.TID 0000.0001)                 1.977341620137575E-05       /* K = 24 */
(PID.TID 0000.0001)     ;
(PID.TID 0000.0001) rotateGrid = /* use rotated grid ( True/False ) */
(PID.TID 0000.0001)                   F
(PID.TID 0000.0001)     ;
(PID.TID 0000.0001) phiEuler = /* Euler angle, rotation about original z-coordinate [rad] */
(PID.TID 0000.0001)                 0.000000000000000E+00
(PID.TID 0000.0001)     ;
(PID.TID 0000.0001) thetaEuler = /* Euler angle, rotation about new x-coordinate [rad] */
(PID.TID 0000.0001)                 0.000000000000000E+00
(PID.TID 0000.0001)     ;
(PID.TID 0000.0001) psiEuler = /* Euler angle, rotation about new z-coordinate [rad] */
(PID.TID 0000.0001)                 0.000000000000000E+00
(PID.TID 0000.0001)     ;
(PID.TID 0000.0001) dxF =  /* dxF(:,1,:,1) ( units: m ) */
(PID.TID 0000.0001)                 2.139819531250000E+04,      /* I =  1 */
(PID.TID 0000.0001)                 2.134052929687500E+04,      /* I =  2 */
(PID.TID 0000.0001)                 2.128357812500000E+04,      /* I =  3 */
(PID.TID 0000.0001)      . . .
(PID.TID 0000.0001)                 2.055532617187500E+04,      /* I = 17 */
(PID.TID 0000.0001)                 2.050784179687500E+04,      /* I = 18 */
(PID.TID 0000.0001)                 2.046091406250000E+04,      /* I = 19 */
(PID.TID 0000.0001)                 2.041453515625000E+04,      /* I = 20 */
(PID.TID 0000.0001)                 2.036869335937500E+04,      /* I = 21 */
(PID.TID 0000.0001)                 2.032338281250000E+04,      /* I = 22 */
(PID.TID 0000.0001)      . . .
(PID.TID 0000.0001)                 1.974061523437500E+04,      /* I = 36 */
(PID.TID 0000.0001)                 1.970239843750000E+04,      /* I = 37 */
(PID.TID 0000.0001)                 1.966460546875000E+04,      /* I = 38 */
(PID.TID 0000.0001)                 1.962722656250000E+04,      /* I = 39 */
(PID.TID 0000.0001)                 1.959025781250000E+04,      /* I = 40 */
(PID.TID 0000.0001)                 1.955369531250000E+04,      /* I = 41 */
(PID.TID 0000.0001)      . . .
(PID.TID 0000.0001)                 1.908145703125000E+04,      /* I = 55 */
(PID.TID 0000.0001)                 1.905037304687500E+04,      /* I = 56 */
(PID.TID 0000.0001)                 1.901961914062500E+04,      /* I = 57 */
(PID.TID 0000.0001)                 1.898919335937500E+04,      /* I = 58 */
(PID.TID 0000.0001)                 1.895908984375000E+04,      /* I = 59 */
(PID.TID 0000.0001)                 1.892930468750000E+04,      /* I = 60 */
(PID.TID 0000.0001)      . . .
(PID.TID 0000.0001)                 1.854391015625000E+04,      /* I = 74 */
(PID.TID 0000.0001)                 1.851851367187500E+04,      /* I = 75 */
(PID.TID 0000.0001)                 1.849338671875000E+04       /* I = 76 */
(PID.TID 0000.0001)     ;
(PID.TID 0000.0001) dxF =  /* dxF(1,:,1,:) ( units: m ) */
(PID.TID 0000.0001)                 2.139819531250000E+04,      /* J =  1 */
(PID.TID 0000.0001)                 2.142048632812500E+04,      /* J =  2 */
(PID.TID 0000.0001)                 2.144250976562500E+04,      /* J =  3 */
(PID.TID 0000.0001)      . . .
(PID.TID 0000.0001)                 2.170506640625000E+04,      /* J = 16 */
(PID.TID 0000.0001)                 2.172347265625000E+04,      /* J = 17 */
(PID.TID 0000.0001)                 2.174162890625000E+04,      /* J = 18 */
(PID.TID 0000.0001)                 2.175953515625000E+04,      /* J = 19 */
(PID.TID 0000.0001)                 2.177719140625000E+04,      /* J = 20 */
(PID.TID 0000.0001)                 2.179459960937500E+04,      /* J = 21 */
(PID.TID 0000.0001)      . . .
(PID.TID 0000.0001)                 2.199872656250000E+04,      /* J = 34 */
(PID.TID 0000.0001)                 2.201274804687500E+04,      /* J = 35 */
(PID.TID 0000.0001)                 2.202653515625000E+04,      /* J = 36 */
(PID.TID 0000.0001)                 2.204008593750000E+04,      /* J = 37 */
(PID.TID 0000.0001)                 2.205340234375000E+04,      /* J = 38 */
(PID.TID 0000.0001)                 2.206648242187500E+04,      /* J = 39 */
(PID.TID 0000.0001)      . . .
(PID.TID 0000.0001)                 2.221550390625000E+04,      /* J = 52 */
(PID.TID 0000.0001)                 2.222536914062500E+04,      /* J = 53 */
(PID.TID 0000.0001)                 2.223500585937500E+04,      /* J = 54 */
(PID.TID 0000.0001)                 2.224441992187500E+04,      /* J = 55 */
(PID.TID 0000.0001)                 2.225360742187500E+04,      /* J = 56 */
(PID.TID 0000.0001)                 2.226257031250000E+04,      /* J = 57 */
(PID.TID 0000.0001)      . . .
(PID.TID 0000.0001)                 2.235884179687500E+04,      /* J = 70 */
(PID.TID 0000.0001)                 2.236470312500000E+04,      /* J = 71 */
(PID.TID 0000.0001)                 2.237034375000000E+04       /* J = 72 */
(PID.TID 0000.0001)     ;
(PID.TID 0000.0001) dyF =  /* dyF(:,1,:,1) ( units: m ) */
(PID.TID 0000.0001)                 1.641875585937500E+04,      /* I =  1 */
(PID.TID 0000.0001)                 1.642790039062500E+04,      /* I =  2 */
(PID.TID 0000.0001)                 1.643717187500000E+04,      /* I =  3 */
(PID.TID 0000.0001)      . . .
(PID.TID 0000.0001)                 1.657813476562500E+04,      /* I = 17 */
(PID.TID 0000.0001)                 1.658886132812500E+04,      /* I = 18 */
(PID.TID 0000.0001)                 1.659965429687500E+04,      /* I = 19 */
(PID.TID 0000.0001)                 1.661051562500000E+04,      /* I = 20 */
(PID.TID 0000.0001)                 1.662143945312500E+04,      /* I = 21 */
(PID.TID 0000.0001)                 1.663242578125000E+04,      /* I = 22 */
(PID.TID 0000.0001)      . . .
(PID.TID 0000.0001)                 1.679093945312500E+04,      /* I = 36 */
(PID.TID 0000.0001)                 1.680249218750000E+04,      /* I = 37 */
(PID.TID 0000.0001)                 1.681406250000000E+04,      /* I = 38 */
(PID.TID 0000.0001)                 1.682565039062500E+04,      /* I = 39 */
(PID.TID 0000.0001)                 1.683724804687500E+04,      /* I = 40 */
(PID.TID 0000.0001)                 1.684885937500000E+04,      /* I = 41 */
(PID.TID 0000.0001)      . . .
(PID.TID 0000.0001)                 1.701138671875000E+04,      /* I = 55 */
(PID.TID 0000.0001)                 1.702291992187500E+04,      /* I = 56 */
(PID.TID 0000.0001)                 1.703443359375000E+04,      /* I = 57 */
(PID.TID 0000.0001)                 1.704592578125000E+04,      /* I = 58 */
(PID.TID 0000.0001)                 1.705739453125000E+04,      /* I = 59 */
(PID.TID 0000.0001)                 1.706883984375000E+04,      /* I = 60 */
(PID.TID 0000.0001)      . . .
(PID.TID 0000.0001)                 1.722574414062500E+04,      /* I = 74 */
(PID.TID 0000.0001)                 1.723666210937500E+04,      /* I = 75 */
(PID.TID 0000.0001)                 1.724753515625000E+04       /* I = 76 */
(PID.TID 0000.0001)     ;
(PID.TID 0000.0001) dyF =  /* dyF(1,:,1,:) ( units: m ) */
(PID.TID 0000.0001)                 1.641875585937500E+04,      /* J =  1 */
(PID.TID 0000.0001)                 1.641383984375000E+04,      /* J =  2 */
(PID.TID 0000.0001)                 1.640894335937500E+04,      /* J =  3 */
(PID.TID 0000.0001)      . . .
(PID.TID 0000.0001)                 1.634750000000000E+04,      /* J = 16 */
(PID.TID 0000.0001)                 1.634298046875000E+04,      /* J = 17 */
(PID.TID 0000.0001)                 1.633849707031250E+04,      /* J = 18 */
(PID.TID 0000.0001)                 1.633404882812500E+04,      /* J = 19 */
(PID.TID 0000.0001)                 1.632963671875000E+04,      /* J = 20 */
(PID.TID 0000.0001)                 1.632526171875000E+04,      /* J = 21 */
(PID.TID 0000.0001)      . . .
(PID.TID 0000.0001)                 1.627213867187500E+04,      /* J = 34 */
(PID.TID 0000.0001)                 1.626836621093750E+04,      /* J = 35 */
(PID.TID 0000.0001)                 1.626464160156250E+04,      /* J = 36 */
(PID.TID 0000.0001)                 1.626096679687500E+04,      /* J = 37 */
(PID.TID 0000.0001)                 1.625734082031250E+04,      /* J = 38 */
(PID.TID 0000.0001)                 1.625376464843750E+04,      /* J = 39 */
(PID.TID 0000.0001)      . . .
(PID.TID 0000.0001)                 1.621206933593750E+04,      /* J = 52 */
(PID.TID 0000.0001)                 1.620924804687500E+04,      /* J = 53 */
(PID.TID 0000.0001)                 1.620648242187500E+04,      /* J = 54 */
(PID.TID 0000.0001)                 1.620377539062500E+04,      /* J = 55 */
(PID.TID 0000.0001)                 1.620112695312500E+04,      /* J = 56 */
(PID.TID 0000.0001)                 1.619853613281250E+04,      /* J = 57 */
(PID.TID 0000.0001)      . . .
(PID.TID 0000.0001)                 1.617031640625000E+04,      /* J = 70 */
(PID.TID 0000.0001)                 1.616857617187500E+04,      /* J = 71 */
(PID.TID 0000.0001)                 1.616689843750000E+04       /* J = 72 */
(PID.TID 0000.0001)     ;
(PID.TID 0000.0001) dxG =  /* dxG(:,1,:,1) ( units: m ) */
(PID.TID 0000.0001)                 2.138695117187500E+04,      /* I =  1 */
(PID.TID 0000.0001)                 2.132937304687500E+04,      /* I =  2 */
(PID.TID 0000.0001)                 2.127251171875000E+04,      /* I =  3 */
(PID.TID 0000.0001)      . . .
(PID.TID 0000.0001)                 2.054548828125000E+04,      /* I = 17 */
(PID.TID 0000.0001)                 2.049808984375000E+04,      /* I = 18 */
(PID.TID 0000.0001)                 2.045124609375000E+04,      /* I = 19 */
(PID.TID 0000.0001)                 2.040495117187500E+04,      /* I = 20 */
(PID.TID 0000.0001)                 2.035919335937500E+04,      /* I = 21 */
(PID.TID 0000.0001)                 2.031396484375000E+04,      /* I = 22 */
(PID.TID 0000.0001)      . . .
(PID.TID 0000.0001)                 1.973230859375000E+04,      /* I = 36 */
(PID.TID 0000.0001)                 1.969416796875000E+04,      /* I = 37 */
(PID.TID 0000.0001)                 1.965644921875000E+04,      /* I = 38 */
(PID.TID 0000.0001)                 1.961914453125000E+04,      /* I = 39 */
(PID.TID 0000.0001)                 1.958224804687500E+04,      /* I = 40 */
(PID.TID 0000.0001)                 1.954575781250000E+04,      /* I = 41 */
(PID.TID 0000.0001)      . . .
(PID.TID 0000.0001)                 1.907447070312500E+04,      /* I = 55 */
(PID.TID 0000.0001)                 1.904345117187500E+04,      /* I = 56 */
(PID.TID 0000.0001)                 1.901275976562500E+04,      /* I = 57 */
(PID.TID 0000.0001)                 1.898239453125000E+04,      /* I = 58 */
(PID.TID 0000.0001)                 1.895235351562500E+04,      /* I = 59 */
(PID.TID 0000.0001)                 1.892262890625000E+04,      /* I = 60 */
(PID.TID 0000.0001)      . . .
(PID.TID 0000.0001)                 1.853801953125000E+04,      /* I = 74 */
(PID.TID 0000.0001)                 1.851267578125000E+04,      /* I = 75 */
(PID.TID 0000.0001)                 1.848759960937500E+04       /* I = 76 */
(PID.TID 0000.0001)     ;
(PID.TID 0000.0001) dxG =  /* dxG(1,:,1,:) ( units: m ) */
(PID.TID 0000.0001)                 2.138695117187500E+04,      /* J =  1 */
(PID.TID 0000.0001)                 2.140937500000000E+04,      /* J =  2 */
(PID.TID 0000.0001)                 2.143153125000000E+04,      /* J =  3 */
(PID.TID 0000.0001)      . . .
(PID.TID 0000.0001)                 2.169576953125000E+04,      /* J = 16 */
(PID.TID 0000.0001)                 2.171430078125000E+04,      /* J = 17 */
(PID.TID 0000.0001)                 2.173258203125000E+04,      /* J = 18 */
(PID.TID 0000.0001)                 2.175061328125000E+04,      /* J = 19 */
(PID.TID 0000.0001)                 2.176839453125000E+04,      /* J = 20 */
(PID.TID 0000.0001)                 2.178592578125000E+04,      /* J = 21 */
(PID.TID 0000.0001)      . . .
(PID.TID 0000.0001)                 2.199162500000000E+04,      /* J = 34 */
(PID.TID 0000.0001)                 2.200576757812500E+04,      /* J = 35 */
(PID.TID 0000.0001)                 2.201967187500000E+04,      /* J = 36 */
(PID.TID 0000.0001)                 2.203333984375000E+04,      /* J = 37 */
(PID.TID 0000.0001)                 2.204677343750000E+04,      /* J = 38 */
(PID.TID 0000.0001)                 2.205997070312500E+04,      /* J = 39 */
(PID.TID 0000.0001)      . . .
(PID.TID 0000.0001)                 2.221048632812500E+04,      /* J = 52 */
(PID.TID 0000.0001)                 2.222046484375000E+04,      /* J = 53 */
(PID.TID 0000.0001)                 2.223021484375000E+04,      /* J = 54 */
(PID.TID 0000.0001)                 2.223974023437500E+04,      /* J = 55 */
(PID.TID 0000.0001)                 2.224904101562500E+04,      /* J = 56 */
(PID.TID 0000.0001)                 2.225811718750000E+04,      /* J = 57 */
(PID.TID 0000.0001)      . . .
(PID.TID 0000.0001)                 2.235583007812500E+04,      /* J = 70 */
(PID.TID 0000.0001)                 2.236179882812500E+04,      /* J = 71 */
(PID.TID 0000.0001)                 2.236755078125000E+04       /* J = 72 */
(PID.TID 0000.0001)     ;
(PID.TID 0000.0001) dyG =  /* dyG(:,1,:,1) ( units: m ) */
(PID.TID 0000.0001)                 1.641423242187500E+04,      /* I =  1 */
(PID.TID 0000.0001)                 1.642331250000000E+04,      /* I =  2 */
(PID.TID 0000.0001)                 1.643252148437500E+04,      /* I =  3 */
(PID.TID 0000.0001)      . . .
(PID.TID 0000.0001)                 1.657280078125000E+04,      /* I = 17 */
(PID.TID 0000.0001)                 1.658348828125000E+04,      /* I = 18 */
(PID.TID 0000.0001)                 1.659425000000000E+04,      /* I = 19 */
(PID.TID 0000.0001)                 1.660507812500000E+04,      /* I = 20 */
(PID.TID 0000.0001)                 1.661597070312500E+04,      /* I = 21 */
(PID.TID 0000.0001)                 1.662692578125000E+04,      /* I = 22 */
(PID.TID 0000.0001)      . . .
(PID.TID 0000.0001)                 1.678516992187500E+04,      /* I = 36 */
(PID.TID 0000.0001)                 1.679671289062500E+04,      /* I = 37 */
(PID.TID 0000.0001)                 1.680827539062500E+04,      /* I = 38 */
(PID.TID 0000.0001)                 1.681985546875000E+04,      /* I = 39 */
(PID.TID 0000.0001)                 1.683144726562500E+04,      /* I = 40 */
(PID.TID 0000.0001)                 1.684305273437500E+04,      /* I = 41 */
(PID.TID 0000.0001)      . . .
(PID.TID 0000.0001)                 1.700561328125000E+04,      /* I = 55 */
(PID.TID 0000.0001)                 1.701715625000000E+04,      /* I = 56 */
(PID.TID 0000.0001)                 1.702867968750000E+04,      /* I = 57 */
(PID.TID 0000.0001)                 1.704018164062500E+04,      /* I = 58 */
(PID.TID 0000.0001)                 1.705166210937500E+04,      /* I = 59 */
(PID.TID 0000.0001)                 1.706311914062500E+04,      /* I = 60 */
(PID.TID 0000.0001)      . . .
(PID.TID 0000.0001)                 1.722026757812500E+04,      /* I = 74 */
(PID.TID 0000.0001)                 1.723120898437500E+04,      /* I = 75 */
(PID.TID 0000.0001)                 1.724210351562500E+04       /* I = 76 */
(PID.TID 0000.0001)     ;
(PID.TID 0000.0001) dyG =  /* dyG(1,:,1,:) ( units: m ) */
(PID.TID 0000.0001)                 1.641423242187500E+04,      /* J =  1 */
(PID.TID 0000.0001)                 1.640936328125000E+04,      /* J =  2 */
(PID.TID 0000.0001)                 1.640451171875000E+04,      /* J =  3 */
(PID.TID 0000.0001)      . . .
(PID.TID 0000.0001)                 1.634358105468750E+04,      /* J = 16 */
(PID.TID 0000.0001)                 1.633909765625000E+04,      /* J = 17 */
(PID.TID 0000.0001)                 1.633464746093750E+04,      /* J = 18 */
(PID.TID 0000.0001)                 1.633023144531250E+04,      /* J = 19 */
(PID.TID 0000.0001)                 1.632585253906250E+04,      /* J = 20 */
(PID.TID 0000.0001)                 1.632150878906250E+04,      /* J = 21 */
(PID.TID 0000.0001)      . . .
(PID.TID 0000.0001)                 1.626874707031250E+04,      /* J = 34 */
(PID.TID 0000.0001)                 1.626499902343750E+04,      /* J = 35 */
(PID.TID 0000.0001)                 1.626129785156250E+04,      /* J = 36 */
(PID.TID 0000.0001)                 1.625764550781250E+04,      /* J = 37 */
(PID.TID 0000.0001)                 1.625404199218750E+04,      /* J = 38 */
(PID.TID 0000.0001)                 1.625048828125000E+04,      /* J = 39 */
(PID.TID 0000.0001)      . . .
(PID.TID 0000.0001)                 1.620903710937500E+04,      /* J = 52 */
(PID.TID 0000.0001)                 1.620623144531250E+04,      /* J = 53 */
(PID.TID 0000.0001)                 1.620348144531250E+04,      /* J = 54 */
(PID.TID 0000.0001)                 1.620078906250000E+04,      /* J = 55 */
(PID.TID 0000.0001)                 1.619815527343750E+04,      /* J = 56 */
(PID.TID 0000.0001)                 1.619557812500000E+04,      /* J = 57 */
(PID.TID 0000.0001)      . . .
(PID.TID 0000.0001)                 1.616750878906250E+04,      /* J = 70 */
(PID.TID 0000.0001)                 1.616577636718750E+04,      /* J = 71 */
(PID.TID 0000.0001)                 1.616410742187500E+04       /* J = 72 */
(PID.TID 0000.0001)     ;
(PID.TID 0000.0001) dxC =  /* dxC(:,1,:,1) ( units: m ) */
(PID.TID 0000.0001)                 2.142730078125000E+04,      /* I =  1 */
(PID.TID 0000.0001)                 2.136927343750000E+04,      /* I =  2 */
(PID.TID 0000.0001)                 2.131196484375000E+04,      /* I =  3 */
(PID.TID 0000.0001)      . . .
(PID.TID 0000.0001)                 2.057927929687500E+04,      /* I = 17 */
(PID.TID 0000.0001)                 2.053151367187500E+04,      /* I = 18 */
(PID.TID 0000.0001)                 2.048431054687500E+04,      /* I = 19 */
(PID.TID 0000.0001)                 2.043765625000000E+04,      /* I = 20 */
(PID.TID 0000.0001)                 2.039154687500000E+04,      /* I = 21 */
(PID.TID 0000.0001)                 2.034597265625000E+04,      /* I = 22 */
(PID.TID 0000.0001)      . . .
(PID.TID 0000.0001)                 1.975988281250000E+04,      /* I = 36 */
(PID.TID 0000.0001)                 1.972145312500000E+04,      /* I = 37 */
(PID.TID 0000.0001)                 1.968344921875000E+04,      /* I = 38 */
(PID.TID 0000.0001)                 1.964586523437500E+04,      /* I = 39 */
(PID.TID 0000.0001)                 1.960869140625000E+04,      /* I = 40 */
(PID.TID 0000.0001)                 1.957192578125000E+04,      /* I = 41 */
(PID.TID 0000.0001)      . . .
(PID.TID 0000.0001)                 1.909712304687500E+04,      /* I = 55 */
(PID.TID 0000.0001)                 1.906587304687500E+04,      /* I = 56 */
(PID.TID 0000.0001)                 1.903495507812500E+04,      /* I = 57 */
(PID.TID 0000.0001)                 1.900436523437500E+04,      /* I = 58 */
(PID.TID 0000.0001)                 1.897410156250000E+04,      /* I = 59 */
(PID.TID 0000.0001)                 1.894415820312500E+04,      /* I = 60 */
(PID.TID 0000.0001)      . . .
(PID.TID 0000.0001)                 1.855671093750000E+04,      /* I = 74 */
(PID.TID 0000.0001)                 1.853117773437500E+04,      /* I = 75 */
(PID.TID 0000.0001)                 1.850591601562500E+04       /* I = 76 */
(PID.TID 0000.0001)     ;
(PID.TID 0000.0001) dxC =  /* dxC(1,:,1,:) ( units: m ) */
(PID.TID 0000.0001)                 2.142730078125000E+04,      /* J =  1 */
(PID.TID 0000.0001)                 2.144967968750000E+04,      /* J =  2 */
(PID.TID 0000.0001)                 2.147179101562500E+04,      /* J =  3 */
(PID.TID 0000.0001)      . . .
(PID.TID 0000.0001)                 2.173536914062500E+04,      /* J = 16 */
(PID.TID 0000.0001)                 2.175384570312500E+04,      /* J = 17 */
(PID.TID 0000.0001)                 2.177207031250000E+04,      /* J = 18 */
(PID.TID 0000.0001)                 2.179004296875000E+04,      /* J = 19 */
(PID.TID 0000.0001)                 2.180776757812500E+04,      /* J = 20 */
(PID.TID 0000.0001)                 2.182524218750000E+04,      /* J = 21 */
(PID.TID 0000.0001)      . . .
(PID.TID 0000.0001)                 2.203012695312500E+04,      /* J = 34 */
(PID.TID 0000.0001)                 2.204420117187500E+04,      /* J = 35 */
(PID.TID 0000.0001)                 2.205803710937500E+04,      /* J = 36 */
(PID.TID 0000.0001)                 2.207163867187500E+04,      /* J = 37 */
(PID.TID 0000.0001)                 2.208500195312500E+04,      /* J = 38 */
(PID.TID 0000.0001)                 2.209813281250000E+04,      /* J = 39 */
(PID.TID 0000.0001)      . . .
(PID.TID 0000.0001)                 2.224768945312500E+04,      /* J = 52 */
(PID.TID 0000.0001)                 2.225758984375000E+04,      /* J = 53 */
(PID.TID 0000.0001)                 2.226726171875000E+04,      /* J = 54 */
(PID.TID 0000.0001)                 2.227670898437500E+04,      /* J = 55 */
(PID.TID 0000.0001)                 2.228592968750000E+04,      /* J = 56 */
(PID.TID 0000.0001)                 2.229492382812500E+04,      /* J = 57 */
(PID.TID 0000.0001)      . . .
(PID.TID 0000.0001)                 2.239153515625000E+04,      /* J = 70 */
(PID.TID 0000.0001)                 2.239741601562500E+04,      /* J = 71 */
(PID.TID 0000.0001)                 2.240307617187500E+04       /* J = 72 */
(PID.TID 0000.0001)     ;
(PID.TID 0000.0001) dyC =  /* dyC(:,1,:,1) ( units: m ) */
(PID.TID 0000.0001)                 1.642122070312500E+04,      /* I =  1 */
(PID.TID 0000.0001)                 1.643041210937500E+04,      /* I =  2 */
(PID.TID 0000.0001)                 1.643973046875000E+04,      /* I =  3 */
(PID.TID 0000.0001)      . . .
(PID.TID 0000.0001)                 1.658140234375000E+04,      /* I = 17 */
(PID.TID 0000.0001)                 1.659217968750000E+04,      /* I = 18 */
(PID.TID 0000.0001)                 1.660302734375000E+04,      /* I = 19 */
(PID.TID 0000.0001)                 1.661394140625000E+04,      /* I = 20 */
(PID.TID 0000.0001)                 1.662491796875000E+04,      /* I = 21 */
(PID.TID 0000.0001)                 1.663595703125000E+04,      /* I = 22 */
(PID.TID 0000.0001)      . . .
(PID.TID 0000.0001)                 1.679521875000000E+04,      /* I = 36 */
(PID.TID 0000.0001)                 1.680682617187500E+04,      /* I = 37 */
(PID.TID 0000.0001)                 1.681844921875000E+04,      /* I = 38 */
(PID.TID 0000.0001)                 1.683008984375000E+04,      /* I = 39 */
(PID.TID 0000.0001)                 1.684174218750000E+04,      /* I = 40 */
(PID.TID 0000.0001)                 1.685340429687500E+04,      /* I = 41 */
(PID.TID 0000.0001)      . . .
(PID.TID 0000.0001)                 1.701665429687500E+04,      /* I = 55 */
(PID.TID 0000.0001)                 1.702823632812500E+04,      /* I = 56 */
(PID.TID 0000.0001)                 1.703979882812500E+04,      /* I = 57 */
(PID.TID 0000.0001)                 1.705134179687500E+04,      /* I = 58 */
(PID.TID 0000.0001)                 1.706285937500000E+04,      /* I = 59 */
(PID.TID 0000.0001)                 1.707435351562500E+04,      /* I = 60 */
(PID.TID 0000.0001)      . . .
(PID.TID 0000.0001)                 1.723191406250000E+04,      /* I = 74 */
(PID.TID 0000.0001)                 1.724287500000000E+04,      /* I = 75 */
(PID.TID 0000.0001)                 1.725379296875000E+04       /* I = 76 */
(PID.TID 0000.0001)     ;
(PID.TID 0000.0001) dyC =  /* dyC(1,:,1,:) ( units: m ) */
(PID.TID 0000.0001)                 1.642122070312500E+04,      /* J =  1 */
(PID.TID 0000.0001)                 1.641629687500000E+04,      /* J =  2 */
(PID.TID 0000.0001)                 1.641139062500000E+04,      /* J =  3 */
(PID.TID 0000.0001)      . . .
(PID.TID 0000.0001)                 1.634977148437500E+04,      /* J = 16 */
(PID.TID 0000.0001)                 1.634523632812500E+04,      /* J = 17 */
(PID.TID 0000.0001)                 1.634073437500000E+04,      /* J = 18 */
(PID.TID 0000.0001)                 1.633626855468750E+04,      /* J = 19 */
(PID.TID 0000.0001)                 1.633183789062500E+04,      /* J = 20 */
(PID.TID 0000.0001)                 1.632744433593750E+04,      /* J = 21 */
(PID.TID 0000.0001)      . . .
(PID.TID 0000.0001)                 1.627404199218750E+04,      /* J = 34 */
(PID.TID 0000.0001)                 1.627024609375000E+04,      /* J = 35 */
(PID.TID 0000.0001)                 1.626649804687500E+04,      /* J = 36 */
(PID.TID 0000.0001)                 1.626279785156250E+04,      /* J = 37 */
(PID.TID 0000.0001)                 1.625914746093750E+04,      /* J = 38 */
(PID.TID 0000.0001)                 1.625554687500000E+04,      /* J = 39 */
(PID.TID 0000.0001)      . . .
(PID.TID 0000.0001)                 1.621350195312500E+04,      /* J = 52 */
(PID.TID 0000.0001)                 1.621065136718750E+04,      /* J = 53 */
(PID.TID 0000.0001)                 1.620785839843750E+04,      /* J = 54 */
(PID.TID 0000.0001)                 1.620512207031250E+04,      /* J = 55 */
(PID.TID 0000.0001)                 1.620244433593750E+04,      /* J = 56 */
(PID.TID 0000.0001)                 1.619982421875000E+04,      /* J = 57 */
(PID.TID 0000.0001)      . . .
(PID.TID 0000.0001)                 1.617121093750000E+04,      /* J = 70 */
(PID.TID 0000.0001)                 1.616943847656250E+04,      /* J = 71 */
(PID.TID 0000.0001)                 1.616772949218750E+04       /* J = 72 */
(PID.TID 0000.0001)     ;
(PID.TID 0000.0001) dxV =  /* dxV(:,1,:,1) ( units: m ) */
(PID.TID 0000.0001)                 2.141601171875000E+04,      /* I =  1 */
(PID.TID 0000.0001)                 2.135807226562500E+04,      /* I =  2 */
(PID.TID 0000.0001)                 2.130085351562500E+04,      /* I =  3 */
(PID.TID 0000.0001)      . . .
(PID.TID 0000.0001)                 2.056939843750000E+04,      /* I = 17 */
(PID.TID 0000.0001)                 2.052171875000000E+04,      /* I = 18 */
(PID.TID 0000.0001)                 2.047459960937500E+04,      /* I = 19 */
(PID.TID 0000.0001)                 2.042803125000000E+04,      /* I = 20 */
(PID.TID 0000.0001)                 2.038200390625000E+04,      /* I = 21 */
(PID.TID 0000.0001)                 2.033651367187500E+04,      /* I = 22 */
(PID.TID 0000.0001)      . . .
(PID.TID 0000.0001)                 1.975153906250000E+04,      /* I = 36 */
(PID.TID 0000.0001)                 1.971318554687500E+04,      /* I = 37 */
(PID.TID 0000.0001)                 1.967525585937500E+04,      /* I = 38 */
(PID.TID 0000.0001)                 1.963774414062500E+04,      /* I = 39 */
(PID.TID 0000.0001)                 1.960064648437500E+04,      /* I = 40 */
(PID.TID 0000.0001)                 1.956395312500000E+04,      /* I = 41 */
(PID.TID 0000.0001)      . . .
(PID.TID 0000.0001)                 1.909010546875000E+04,      /* I = 55 */
(PID.TID 0000.0001)                 1.905891992187500E+04,      /* I = 56 */
(PID.TID 0000.0001)                 1.902806445312500E+04,      /* I = 57 */
(PID.TID 0000.0001)                 1.899753710937500E+04,      /* I = 58 */
(PID.TID 0000.0001)                 1.896733398437500E+04,      /* I = 59 */
(PID.TID 0000.0001)                 1.893745117187500E+04,      /* I = 60 */
(PID.TID 0000.0001)      . . .
(PID.TID 0000.0001)                 1.855079492187500E+04,      /* I = 74 */
(PID.TID 0000.0001)                 1.852531445312500E+04,      /* I = 75 */
(PID.TID 0000.0001)                 1.850010351562500E+04       /* I = 76 */
(PID.TID 0000.0001)     ;
(PID.TID 0000.0001) dxV =  /* dxV(1,:,1,:) ( units: m ) */
(PID.TID 0000.0001)                 2.141601171875000E+04,      /* J =  1 */
(PID.TID 0000.0001)                 2.143852539062500E+04,      /* J =  2 */
(PID.TID 0000.0001)                 2.146076953125000E+04,      /* J =  3 */
(PID.TID 0000.0001)      . . .
(PID.TID 0000.0001)                 2.172603515625000E+04,      /* J = 16 */
(PID.TID 0000.0001)                 2.174463867187500E+04,      /* J = 17 */
(PID.TID 0000.0001)                 2.176298828125000E+04,      /* J = 18 */
(PID.TID 0000.0001)                 2.178108789062500E+04,      /* J = 19 */
(PID.TID 0000.0001)                 2.179893750000000E+04,      /* J = 20 */
(PID.TID 0000.0001)                 2.181653515625000E+04,      /* J = 21 */
(PID.TID 0000.0001)      . . .
(PID.TID 0000.0001)                 2.202300000000000E+04,      /* J = 34 */
(PID.TID 0000.0001)                 2.203719335937500E+04,      /* J = 35 */
(PID.TID 0000.0001)                 2.205114843750000E+04,      /* J = 36 */
(PID.TID 0000.0001)                 2.206486718750000E+04,      /* J = 37 */
(PID.TID 0000.0001)                 2.207834960937500E+04,      /* J = 38 */
(PID.TID 0000.0001)                 2.209159570312500E+04,      /* J = 39 */
(PID.TID 0000.0001)      . . .
(PID.TID 0000.0001)                 2.224265429687500E+04,      /* J = 52 */
(PID.TID 0000.0001)                 2.225266796875000E+04,      /* J = 53 */
(PID.TID 0000.0001)                 2.226245312500000E+04,      /* J = 54 */
(PID.TID 0000.0001)                 2.227201367187500E+04,      /* J = 55 */
(PID.TID 0000.0001)                 2.228134765625000E+04,      /* J = 56 */
(PID.TID 0000.0001)                 2.229045507812500E+04,      /* J = 57 */
(PID.TID 0000.0001)      . . .
(PID.TID 0000.0001)                 2.238851171875000E+04,      /* J = 70 */
(PID.TID 0000.0001)                 2.239450390625000E+04,      /* J = 71 */
(PID.TID 0000.0001)                 2.240027343750000E+04       /* J = 72 */
(PID.TID 0000.0001)     ;
(PID.TID 0000.0001) dyU =  /* dyU(:,1,:,1) ( units: m ) */
(PID.TID 0000.0001)                 1.641667382812500E+04,      /* I =  1 */
(PID.TID 0000.0001)                 1.642580078125000E+04,      /* I =  2 */
(PID.TID 0000.0001)                 1.643505664062500E+04,      /* I =  3 */
(PID.TID 0000.0001)      . . .
(PID.TID 0000.0001)                 1.657604101562500E+04,      /* I = 17 */
(PID.TID 0000.0001)                 1.658678125000000E+04,      /* I = 18 */
(PID.TID 0000.0001)                 1.659759570312500E+04,      /* I = 19 */
(PID.TID 0000.0001)                 1.660847656250000E+04,      /* I = 20 */
(PID.TID 0000.0001)                 1.661942187500000E+04,      /* I = 21 */
(PID.TID 0000.0001)                 1.663042968750000E+04,      /* I = 22 */
(PID.TID 0000.0001)      . . .
(PID.TID 0000.0001)                 1.678942382812500E+04,      /* I = 36 */
(PID.TID 0000.0001)                 1.680101953125000E+04,      /* I = 37 */
(PID.TID 0000.0001)                 1.681263671875000E+04,      /* I = 38 */
(PID.TID 0000.0001)                 1.682426757812500E+04,      /* I = 39 */
(PID.TID 0000.0001)                 1.683591406250000E+04,      /* I = 40 */
(PID.TID 0000.0001)                 1.684757226562500E+04,      /* I = 41 */
(PID.TID 0000.0001)      . . .
(PID.TID 0000.0001)                 1.701085546875000E+04,      /* I = 55 */
(PID.TID 0000.0001)                 1.702244726562500E+04,      /* I = 56 */
(PID.TID 0000.0001)                 1.703402148437500E+04,      /* I = 57 */
(PID.TID 0000.0001)                 1.704557226562500E+04,      /* I = 58 */
(PID.TID 0000.0001)                 1.705710351562500E+04,      /* I = 59 */
(PID.TID 0000.0001)                 1.706860937500000E+04,      /* I = 60 */
(PID.TID 0000.0001)      . . .
(PID.TID 0000.0001)                 1.722641601562500E+04,      /* I = 74 */
(PID.TID 0000.0001)                 1.723740039062500E+04,      /* I = 75 */
(PID.TID 0000.0001)                 1.724833984375000E+04       /* I = 76 */
(PID.TID 0000.0001)     ;
(PID.TID 0000.0001) dyU =  /* dyU(1,:,1,:) ( units: m ) */
(PID.TID 0000.0001)                 1.641667382812500E+04,      /* J =  1 */
(PID.TID 0000.0001)                 1.641179492187500E+04,      /* J =  2 */
(PID.TID 0000.0001)                 1.640693554687500E+04,      /* J =  3 */
(PID.TID 0000.0001)      . . .
(PID.TID 0000.0001)                 1.634583593750000E+04,      /* J = 16 */
(PID.TID 0000.0001)                 1.634133496093750E+04,      /* J = 17 */
(PID.TID 0000.0001)                 1.633686816406250E+04,      /* J = 18 */
(PID.TID 0000.0001)                 1.633243457031250E+04,      /* J = 19 */
(PID.TID 0000.0001)                 1.632803710937500E+04,      /* J = 20 */
(PID.TID 0000.0001)                 1.632367578125000E+04,      /* J = 21 */
(PID.TID 0000.0001)      . . .
(PID.TID 0000.0001)                 1.627063867187500E+04,      /* J = 34 */
(PID.TID 0000.0001)                 1.626686718750000E+04,      /* J = 35 */
(PID.TID 0000.0001)                 1.626314257812500E+04,      /* J = 36 */
(PID.TID 0000.0001)                 1.625946582031250E+04,      /* J = 37 */
(PID.TID 0000.0001)                 1.625583789062500E+04,      /* J = 38 */
(PID.TID 0000.0001)                 1.625225878906250E+04,      /* J = 39 */
(PID.TID 0000.0001)      . . .
(PID.TID 0000.0001)                 1.621046191406250E+04,      /* J = 52 */
(PID.TID 0000.0001)                 1.620762695312500E+04,      /* J = 53 */
(PID.TID 0000.0001)                 1.620484960937500E+04,      /* J = 54 */
(PID.TID 0000.0001)                 1.620212890625000E+04,      /* J = 55 */
(PID.TID 0000.0001)                 1.619946484375000E+04,      /* J = 56 */
(PID.TID 0000.0001)                 1.619685937500000E+04,      /* J = 57 */
(PID.TID 0000.0001)      . . .
(PID.TID 0000.0001)                 1.616839746093750E+04,      /* J = 70 */
(PID.TID 0000.0001)                 1.616663476562500E+04,      /* J = 71 */
(PID.TID 0000.0001)                 1.616493457031250E+04       /* J = 72 */
(PID.TID 0000.0001)     ;
(PID.TID 0000.0001) rA  =  /* rA (:,1,:,1) ( units: m^2 ) */
(PID.TID 0000.0001)                 3.513317440000000E+08,      /* I =  1 */
(PID.TID 0000.0001)                 3.505800640000000E+08,      /* I =  2 */
(PID.TID 0000.0001)                 3.498417920000000E+08,      /* I =  3 */
(PID.TID 0000.0001)      . . .
(PID.TID 0000.0001)                 3.407688960000000E+08,      /* I = 17 */
(PID.TID 0000.0001)                 3.402016640000000E+08,      /* I = 18 */
(PID.TID 0000.0001)                 3.396440640000000E+08,      /* I = 19 */
(PID.TID 0000.0001)                 3.390958720000000E+08,      /* I = 20 */
(PID.TID 0000.0001)                 3.385569280000000E+08,      /* I = 21 */
(PID.TID 0000.0001)                 3.380270400000000E+08,      /* I = 22 */
(PID.TID 0000.0001)      . . .
(PID.TID 0000.0001)                 3.314633600000000E+08,      /* I = 36 */
(PID.TID 0000.0001)                 3.310493120000000E+08,      /* I = 37 */
(PID.TID 0000.0001)                 3.306418240000000E+08,      /* I = 38 */
(PID.TID 0000.0001)                 3.302407360000000E+08,      /* I = 39 */
(PID.TID 0000.0001)                 3.298459520000000E+08,      /* I = 40 */
(PID.TID 0000.0001)                 3.294573440000000E+08,      /* I = 41 */
(PID.TID 0000.0001)      . . .
(PID.TID 0000.0001)                 3.246019520000000E+08,      /* I = 55 */
(PID.TID 0000.0001)                 3.242928640000000E+08,      /* I = 56 */
(PID.TID 0000.0001)                 3.239883200000000E+08,      /* I = 57 */
(PID.TID 0000.0001)                 3.236882560000000E+08,      /* I = 58 */
(PID.TID 0000.0001)                 3.233925440000000E+08,      /* I = 59 */
(PID.TID 0000.0001)                 3.231011520000000E+08,      /* I = 60 */
(PID.TID 0000.0001)      . . .
(PID.TID 0000.0001)                 3.194325440000000E+08,      /* I = 74 */
(PID.TID 0000.0001)                 3.191972480000000E+08,      /* I = 75 */
(PID.TID 0000.0001)                 3.189652160000000E+08       /* I = 76 */
(PID.TID 0000.0001)     ;
(PID.TID 0000.0001) rA  =  /* rA (1,:,1,:) ( units: m^2 ) */
(PID.TID 0000.0001)                 3.513317440000000E+08,      /* J =  1 */
(PID.TID 0000.0001)                 3.515924160000000E+08,      /* J =  2 */
(PID.TID 0000.0001)                 3.518488960000000E+08,      /* J =  3 */
(PID.TID 0000.0001)      . . .
(PID.TID 0000.0001)                 3.548235520000000E+08,      /* J = 16 */
(PID.TID 0000.0001)                 3.550262720000000E+08,      /* J = 17 */
(PID.TID 0000.0001)                 3.552255040000000E+08,      /* J = 18 */
(PID.TID 0000.0001)                 3.554212800000000E+08,      /* J = 19 */
(PID.TID 0000.0001)                 3.556136000000000E+08,      /* J = 20 */
(PID.TID 0000.0001)                 3.558025280000000E+08,      /* J = 21 */
(PID.TID 0000.0001)      . . .
(PID.TID 0000.0001)                 3.579663040000000E+08,      /* J = 34 */
(PID.TID 0000.0001)                 3.581114560000000E+08,      /* J = 35 */
(PID.TID 0000.0001)                 3.582536960000000E+08,      /* J = 36 */
(PID.TID 0000.0001)                 3.583930880000000E+08,      /* J = 37 */
(PID.TID 0000.0001)                 3.585296640000000E+08,      /* J = 38 */
(PID.TID 0000.0001)                 3.586634240000000E+08,      /* J = 39 */
(PID.TID 0000.0001)      . . .
(PID.TID 0000.0001)                 3.601592960000000E+08,      /* J = 52 */
(PID.TID 0000.0001)                 3.602565120000000E+08,      /* J = 53 */
(PID.TID 0000.0001)                 3.603512640000000E+08,      /* J = 54 */
(PID.TID 0000.0001)                 3.604435840000000E+08,      /* J = 55 */
(PID.TID 0000.0001)                 3.605335360000000E+08,      /* J = 56 */
(PID.TID 0000.0001)                 3.606210560000000E+08,      /* J = 57 */
(PID.TID 0000.0001)      . . .
(PID.TID 0000.0001)                 3.615495680000000E+08,      /* J = 70 */
(PID.TID 0000.0001)                 3.616054080000000E+08,      /* J = 71 */
(PID.TID 0000.0001)                 3.616590720000000E+08       /* J = 72 */
(PID.TID 0000.0001)     ;
(PID.TID 0000.0001) rAw =  /* rAw(:,1,:,1) ( units: m^2 ) */
(PID.TID 0000.0001)                 3.517127040000000E+08,      /* I =  1 */
(PID.TID 0000.0001)                 3.509542080000000E+08,      /* I =  2 */
(PID.TID 0000.0001)                 3.502092800000000E+08,      /* I =  3 */
(PID.TID 0000.0001)      . . .
(PID.TID 0000.0001)                 3.410561920000000E+08,      /* I = 17 */
(PID.TID 0000.0001)                 3.404840640000000E+08,      /* I = 18 */
(PID.TID 0000.0001)                 3.399216640000000E+08,      /* I = 19 */
(PID.TID 0000.0001)                 3.393688000000000E+08,      /* I = 20 */
(PID.TID 0000.0001)                 3.388252480000000E+08,      /* I = 21 */
(PID.TID 0000.0001)                 3.382908800000000E+08,      /* I = 22 */
(PID.TID 0000.0001)      . . .
(PID.TID 0000.0001)                 3.316728640000000E+08,      /* I = 36 */
(PID.TID 0000.0001)                 3.312554880000000E+08,      /* I = 37 */
(PID.TID 0000.0001)                 3.308447360000000E+08,      /* I = 38 */
(PID.TID 0000.0001)                 3.304404800000000E+08,      /* I = 39 */
(PID.TID 0000.0001)                 3.300425600000000E+08,      /* I = 40 */
(PID.TID 0000.0001)                 3.296508800000000E+08,      /* I = 41 */
(PID.TID 0000.0001)      . . .
(PID.TID 0000.0001)                 3.247582080000000E+08,      /* I = 55 */
(PID.TID 0000.0001)                 3.244468160000000E+08,      /* I = 56 */
(PID.TID 0000.0001)                 3.241400320000000E+08,      /* I = 57 */
(PID.TID 0000.0001)                 3.238377280000000E+08,      /* I = 58 */
(PID.TID 0000.0001)                 3.235398720000000E+08,      /* I = 59 */
(PID.TID 0000.0001)                 3.232463360000000E+08,      /* I = 60 */
(PID.TID 0000.0001)      . . .
(PID.TID 0000.0001)                 3.195514240000000E+08,      /* I = 74 */
(PID.TID 0000.0001)                 3.193144960000000E+08,      /* I = 75 */
(PID.TID 0000.0001)                 3.190808320000000E+08       /* I = 76 */
(PID.TID 0000.0001)     ;
(PID.TID 0000.0001) rAw =  /* rAw(1,:,1,:) ( units: m^2 ) */
(PID.TID 0000.0001)                 3.517127040000000E+08,      /* J =  1 */
(PID.TID 0000.0001)                 3.519755520000000E+08,      /* J =  2 */
(PID.TID 0000.0001)                 3.522342080000000E+08,      /* J =  3 */
(PID.TID 0000.0001)      . . .
(PID.TID 0000.0001)                 3.552337600000000E+08,      /* J = 16 */
(PID.TID 0000.0001)                 3.554381760000000E+08,      /* J = 17 */
(PID.TID 0000.0001)                 3.556390720000000E+08,      /* J = 18 */
(PID.TID 0000.0001)                 3.558364480000000E+08,      /* J = 19 */
(PID.TID 0000.0001)                 3.560303680000000E+08,      /* J = 20 */
(PID.TID 0000.0001)                 3.562208640000000E+08,      /* J = 21 */
(PID.TID 0000.0001)      . . .
(PID.TID 0000.0001)                 3.584025600000000E+08,      /* J = 34 */
(PID.TID 0000.0001)                 3.585488960000000E+08,      /* J = 35 */
(PID.TID 0000.0001)                 3.586923200000000E+08,      /* J = 36 */
(PID.TID 0000.0001)                 3.588328640000000E+08,      /* J = 37 */
(PID.TID 0000.0001)                 3.589705600000000E+08,      /* J = 38 */
(PID.TID 0000.0001)                 3.591054400000000E+08,      /* J = 39 */
(PID.TID 0000.0001)      . . .
(PID.TID 0000.0001)                 3.606136320000000E+08,      /* J = 52 */
(PID.TID 0000.0001)                 3.607116480000000E+08,      /* J = 53 */
(PID.TID 0000.0001)                 3.608071680000000E+08,      /* J = 54 */
(PID.TID 0000.0001)                 3.609002880000000E+08,      /* J = 55 */
(PID.TID 0000.0001)                 3.609909440000000E+08,      /* J = 56 */
(PID.TID 0000.0001)                 3.610792000000000E+08,      /* J = 57 */
(PID.TID 0000.0001)      . . .
(PID.TID 0000.0001)                 3.620153600000000E+08,      /* J = 70 */
(PID.TID 0000.0001)                 3.620716480000000E+08,      /* J = 71 */
(PID.TID 0000.0001)                 3.621257600000000E+08       /* J = 72 */
(PID.TID 0000.0001)     ;
(PID.TID 0000.0001) rAs =  /* rAs(:,1,:,1) ( units: m^2 ) */
(PID.TID 0000.0001)                 3.511998080000000E+08,      /* I =  1 */
(PID.TID 0000.0001)                 3.504503680000000E+08,      /* I =  2 */
(PID.TID 0000.0001)                 3.497143360000000E+08,      /* I =  3 */
(PID.TID 0000.0001)      . . .
(PID.TID 0000.0001)                 3.406729280000000E+08,      /* I = 17 */
(PID.TID 0000.0001)                 3.401079040000000E+08,      /* I = 18 */
(PID.TID 0000.0001)                 3.395525120000000E+08,      /* I = 19 */
(PID.TID 0000.0001)                 3.390065600000000E+08,      /* I = 20 */
(PID.TID 0000.0001)                 3.384698240000000E+08,      /* I = 21 */
(PID.TID 0000.0001)                 3.379421760000000E+08,      /* I = 22 */
(PID.TID 0000.0001)      . . .
(PID.TID 0000.0001)                 3.314083520000000E+08,      /* I = 36 */
(PID.TID 0000.0001)                 3.309963520000000E+08,      /* I = 37 */
(PID.TID 0000.0001)                 3.305908800000000E+08,      /* I = 38 */
(PID.TID 0000.0001)                 3.301918400000000E+08,      /* I = 39 */
(PID.TID 0000.0001)                 3.297990720000000E+08,      /* I = 40 */
(PID.TID 0000.0001)                 3.294124480000000E+08,      /* I = 41 */
(PID.TID 0000.0001)      . . .
(PID.TID 0000.0001)                 3.245835840000000E+08,      /* I = 55 */
(PID.TID 0000.0001)                 3.242762880000000E+08,      /* I = 56 */
(PID.TID 0000.0001)                 3.239735040000000E+08,      /* I = 57 */
(PID.TID 0000.0001)                 3.236752000000000E+08,      /* I = 58 */
(PID.TID 0000.0001)                 3.233812160000000E+08,      /* I = 59 */
(PID.TID 0000.0001)                 3.230915520000000E+08,      /* I = 60 */
(PID.TID 0000.0001)      . . .
(PID.TID 0000.0001)                 3.194454400000000E+08,      /* I = 74 */
(PID.TID 0000.0001)                 3.192116480000000E+08,      /* I = 75 */
(PID.TID 0000.0001)                 3.189810880000000E+08       /* I = 76 */
(PID.TID 0000.0001)     ;
(PID.TID 0000.0001) rAs =  /* rAs(1,:,1,:) ( units: m^2 ) */
(PID.TID 0000.0001)                 3.511998080000000E+08,      /* J =  1 */
(PID.TID 0000.0001)                 3.514625920000000E+08,      /* J =  2 */
(PID.TID 0000.0001)                 3.517211840000000E+08,      /* J =  3 */
(PID.TID 0000.0001)      . . .
(PID.TID 0000.0001)                 3.547208320000000E+08,      /* J = 16 */
(PID.TID 0000.0001)                 3.549253440000000E+08,      /* J = 17 */
(PID.TID 0000.0001)                 3.551263360000000E+08,      /* J = 18 */
(PID.TID 0000.0001)                 3.553238400000000E+08,      /* J = 19 */
(PID.TID 0000.0001)                 3.555178560000000E+08,      /* J = 20 */
(PID.TID 0000.0001)                 3.557084800000000E+08,      /* J = 21 */
(PID.TID 0000.0001)      . . .
(PID.TID 0000.0001)                 3.578926400000000E+08,      /* J = 34 */
(PID.TID 0000.0001)                 3.580392320000000E+08,      /* J = 35 */
(PID.TID 0000.0001)                 3.581829440000000E+08,      /* J = 36 */
(PID.TID 0000.0001)                 3.583237440000000E+08,      /* J = 37 */
(PID.TID 0000.0001)                 3.584617280000000E+08,      /* J = 38 */
(PID.TID 0000.0001)                 3.585968960000000E+08,      /* J = 39 */
(PID.TID 0000.0001)      . . .
(PID.TID 0000.0001)                 3.601097920000000E+08,      /* J = 52 */
(PID.TID 0000.0001)                 3.602082240000000E+08,      /* J = 53 */
(PID.TID 0000.0001)                 3.603041920000000E+08,      /* J = 54 */
(PID.TID 0000.0001)                 3.603977280000000E+08,      /* J = 55 */
(PID.TID 0000.0001)                 3.604888640000000E+08,      /* J = 56 */
(PID.TID 0000.0001)                 3.605776000000000E+08,      /* J = 57 */
(PID.TID 0000.0001)      . . .
(PID.TID 0000.0001)                 3.615208640000000E+08,      /* J = 70 */
(PID.TID 0000.0001)                 3.615777600000000E+08,      /* J = 71 */
(PID.TID 0000.0001)                 3.616325120000000E+08       /* J = 72 */
(PID.TID 0000.0001)     ;
(PID.TID 0000.0001) globalArea = /* Integrated horizontal Area (m^2) */
(PID.TID 0000.0001)                 4.766958834880000E+11
(PID.TID 0000.0001)     ;
(PID.TID 0000.0001) // =======================================================
(PID.TID 0000.0001) // End of Model config. summary
(PID.TID 0000.0001) // =======================================================
(PID.TID 0000.0001) 
(PID.TID 0000.0001) == Packages configuration : Check & print summary ==
(PID.TID 0000.0001) 
(PID.TID 0000.0001) OBCS_CHECK: #define ALLOW_OBCS
(PID.TID 0000.0001) OBCS_CHECK: start summary:
(PID.TID 0000.0001) useOBCSprescribe = /* prescribe OB values */
(PID.TID 0000.0001)                   T
(PID.TID 0000.0001)     ;
(PID.TID 0000.0001) useOBCSbalance = /* balance the flow through OB */
(PID.TID 0000.0001)                   F
(PID.TID 0000.0001)     ;
(PID.TID 0000.0001) OBCS_uvApplyFac = /* Factor to apply to U,V 2nd column/row */
(PID.TID 0000.0001)                 1.000000000000000E+00
(PID.TID 0000.0001)     ;
(PID.TID 0000.0001) OBCS_u1_adv_T = /* Temp uses upwind adv-scheme @ OB */
(PID.TID 0000.0001)                       0
(PID.TID 0000.0001)     ;
(PID.TID 0000.0001) OBCS_u1_adv_S = /* Salt uses upwind adv-scheme @ OB */
(PID.TID 0000.0001)                       0
(PID.TID 0000.0001)     ;
(PID.TID 0000.0001) OBCS_monitorFreq = /* monitor output frequency [s] */
(PID.TID 0000.0001)                 1.200000000000000E+03
(PID.TID 0000.0001)     ;
(PID.TID 0000.0001) OBCS_monSelect = /* select group of variables to monitor */
(PID.TID 0000.0001)                       0
(PID.TID 0000.0001)     ;
(PID.TID 0000.0001) useOBCStides = /* apply tidal forcing through OB */
(PID.TID 0000.0001)                   F
(PID.TID 0000.0001)     ;
(PID.TID 0000.0001) tidalPeriod = /* (s) */
(PID.TID 0000.0001)    10 @  0.000000000000000E+00              /* I =  1: 10 */
(PID.TID 0000.0001)     ;
(PID.TID 0000.0001) OB_indexNone = /* null value for OB index (i.e. no OB) */
(PID.TID 0000.0001)                     -99
(PID.TID 0000.0001)     ;
(PID.TID 0000.0001) ======== Tile bi=   1 , bj=   1 ========
(PID.TID 0000.0001)  OB_Jn = /* Northern OB local indices */
(PID.TID 0000.0001)    46 @      -99                            /* I = -3: 42 */
(PID.TID 0000.0001)  OB_Js = /* Southern OB local indices */
(PID.TID 0000.0001)    46 @      -99                            /* I = -3: 42 */
(PID.TID 0000.0001)  OB_Ie = /* Eastern OB local indices */
(PID.TID 0000.0001)    44 @      -99                            /* J = -3: 40 */
(PID.TID 0000.0001)  OB_Iw = /* Western OB local indices */
(PID.TID 0000.0001)    44 @        1                            /* J = -3: 40 */
(PID.TID 0000.0001) ======== Tile bi=   2 , bj=   1 ========
(PID.TID 0000.0001)  OB_Jn = /* Northern OB local indices */
(PID.TID 0000.0001)    46 @      -99                            /* I = -3: 42 */
(PID.TID 0000.0001)  OB_Js = /* Southern OB local indices */
(PID.TID 0000.0001)    46 @      -99                            /* I = -3: 42 */
(PID.TID 0000.0001)  OB_Ie = /* Eastern OB local indices */
(PID.TID 0000.0001)    44 @      -99                            /* J = -3: 40 */
(PID.TID 0000.0001)  OB_Iw = /* Western OB local indices */
(PID.TID 0000.0001)    44 @      -99                            /* J = -3: 40 */
(PID.TID 0000.0001) ======== Tile bi=   1 , bj=   2 ========
(PID.TID 0000.0001)  OB_Jn = /* Northern OB local indices */
(PID.TID 0000.0001)    46 @       36                            /* I = -3: 42 */
(PID.TID 0000.0001)  OB_Js = /* Southern OB local indices */
(PID.TID 0000.0001)    46 @      -99                            /* I = -3: 42 */
(PID.TID 0000.0001)  OB_Ie = /* Eastern OB local indices */
(PID.TID 0000.0001)    44 @      -99                            /* J = -3: 40 */
(PID.TID 0000.0001)  OB_Iw = /* Western OB local indices */
(PID.TID 0000.0001)    44 @        1                            /* J = -3: 40 */
(PID.TID 0000.0001) ======== Tile bi=   2 , bj=   2 ========
(PID.TID 0000.0001)  OB_Jn = /* Northern OB local indices */
(PID.TID 0000.0001)    46 @       36                            /* I = -3: 42 */
(PID.TID 0000.0001)  OB_Js = /* Southern OB local indices */
(PID.TID 0000.0001)    46 @      -99                            /* I = -3: 42 */
(PID.TID 0000.0001)  OB_Ie = /* Eastern OB local indices */
(PID.TID 0000.0001)    44 @      -99                            /* J = -3: 40 */
(PID.TID 0000.0001)  OB_Iw = /* Western OB local indices */
(PID.TID 0000.0001)    44 @      -99                            /* J = -3: 40 */
(PID.TID 0000.0001) OBCS_CHECK: end summary.
(PID.TID 0000.0001) OBCS_CHECK: set-up OK
(PID.TID 0000.0001) OBCS_CHECK: check Inside Mask and OB locations: OK
(PID.TID 0000.0001) KPP_CHECK: #define ALLOW_KPP
(PID.TID 0000.0001) PTRACERS_CHECK: #define ALLOW_PTRACERS
(PID.TID 0000.0001) PTRACERS_CHECK: updated GAD_OlMinSize=  4  0  1
(PID.TID 0000.0001) // ===================================
(PID.TID 0000.0001) // PTRACERS parameters
(PID.TID 0000.0001) // ===================================
(PID.TID 0000.0001) PTRACERS_numInUse = /* number of tracers */
(PID.TID 0000.0001)                      97
(PID.TID 0000.0001)     ;
(PID.TID 0000.0001) PTRACERS_Iter0 = /* timestep number when tracers are initialized */
(PID.TID 0000.0001)                   26352
(PID.TID 0000.0001)     ;
(PID.TID 0000.0001) PTRACERS_startAllTrc =/* all tracers start @ startTime */
(PID.TID 0000.0001)                   T
(PID.TID 0000.0001)     ;
(PID.TID 0000.0001) PTRACERS_addSrelax2EmP =/* add Salt relaxation to EmP */
(PID.TID 0000.0001)                   F
(PID.TID 0000.0001)     ;
(PID.TID 0000.0001) PTRACERS_dTLev =   /* Ptracer timestep ( s ) */
(PID.TID 0000.0001)    24 @  1.200000000000000E+03              /* K =  1: 24 */
(PID.TID 0000.0001)     ;
(PID.TID 0000.0001) PTRACERS_monitorFreq = /* Frequency^-1 for monitor output (s) */
(PID.TID 0000.0001)                 1.200000000000000E+03
(PID.TID 0000.0001)     ;
(PID.TID 0000.0001) PTRACERS_dumpFreq = /* Frequency^-1 for snapshot output (s) */
(PID.TID 0000.0001)                 1.200000000000000E+03
(PID.TID 0000.0001)     ;
(PID.TID 0000.0001) PTRACERS_taveFreq = /* Frequency^-1 for time-Aver. output (s) */
(PID.TID 0000.0001)                 0.000000000000000E+00
(PID.TID 0000.0001)     ;
(PID.TID 0000.0001) PTRACERS_useRecords = /* all tracers in 1 file */
(PID.TID 0000.0001)                   F
(PID.TID 0000.0001)     ;
(PID.TID 0000.0001) PTRACERS_timeave_mnc = /* use MNC for Tave output */
(PID.TID 0000.0001)                   T
(PID.TID 0000.0001)     ;
(PID.TID 0000.0001) PTRACERS_snapshot_mnc = /* use MNC for snapshot output */
(PID.TID 0000.0001)                   T
(PID.TID 0000.0001)     ;
(PID.TID 0000.0001) PTRACERS_pickup_write_mnc = /* use MNC for writing pickups */
(PID.TID 0000.0001)                   F
(PID.TID 0000.0001)     ;
(PID.TID 0000.0001) PTRACERS_pickup_read_mnc = /* use MNC for reading pickups */
(PID.TID 0000.0001)                   F
(PID.TID 0000.0001)     ;
(PID.TID 0000.0001)  -----------------------------------
(PID.TID 0000.0001)  tracer number :    1
(PID.TID 0000.0001) PTRACERS_names = /* Tracer short name */
(PID.TID 0000.0001)               'DIC'
(PID.TID 0000.0001)     ;
(PID.TID 0000.0001) PTRACERS_long_names = /* Tracer long name */
(PID.TID 0000.0001)               ''
(PID.TID 0000.0001)     ;
(PID.TID 0000.0001) PTRACERS_ioLabel = /* tracer IO Label */
(PID.TID 0000.0001)               '01'
(PID.TID 0000.0001)     ;
(PID.TID 0000.0001) PTRACERS_advScheme = /* Advection Scheme */
(PID.TID 0000.0001)                      33
(PID.TID 0000.0001)     ;
(PID.TID 0000.0001) PTRACERS_SOM_Advection = /* tracer uses SOM advection scheme */
(PID.TID 0000.0001)                   F
(PID.TID 0000.0001)     ;
(PID.TID 0000.0001) PTRACERS_ImplVertAdv = /* implicit vert. advection flag */
(PID.TID 0000.0001)                   F
(PID.TID 0000.0001)     ;
(PID.TID 0000.0001) PTRACERS_diffKh = /* Laplacian Diffusivity */
(PID.TID 0000.0001)                 0.000000000000000E+00
(PID.TID 0000.0001)     ;
(PID.TID 0000.0001) PTRACERS_diffK4 = /* Biharmonic Diffusivity */
(PID.TID 0000.0001)                 0.000000000000000E+00
(PID.TID 0000.0001)     ;
(PID.TID 0000.0001) PTRACERS_diffKrNr = /* Vertical Diffusivity */
(PID.TID 0000.0001)    24 @  1.000000000000000E-06              /* K =  1: 24 */
(PID.TID 0000.0001)     ;
(PID.TID 0000.0001) PTRACERS_useGMRedi = /* apply GM-Redi */
(PID.TID 0000.0001)                   F
(PID.TID 0000.0001)     ;
(PID.TID 0000.0001) PTRACERS_useDWNSLP = /* apply DOWN-SLOPE Flow */
(PID.TID 0000.0001)                   F
(PID.TID 0000.0001)     ;
(PID.TID 0000.0001) PTRACERS_useKPP = /* apply KPP scheme */
(PID.TID 0000.0001)                   T
(PID.TID 0000.0001)     ;
(PID.TID 0000.0001) PTRACERS_ref = /* Reference vertical profile */
(PID.TID 0000.0001)    24 @  0.000000000000000E+00              /* K =  1: 24 */
(PID.TID 0000.0001)     ;
(PID.TID 0000.0001) PTRACERS_EvPrRn =/* tracer conc. in Evap. & Rain */
(PID.TID 0000.0001)                 1.234567000000000E+05
(PID.TID 0000.0001)     ;
(PID.TID 0000.0001)  -----------------------------------
(PID.TID 0000.0001)  tracer number :    2
(PID.TID 0000.0001) PTRACERS_names = /* Tracer short name */
(PID.TID 0000.0001)               'NH4'
(PID.TID 0000.0001)     ;
(PID.TID 0000.0001) PTRACERS_long_names = /* Tracer long name */
(PID.TID 0000.0001)               ''
(PID.TID 0000.0001)     ;
(PID.TID 0000.0001) PTRACERS_ioLabel = /* tracer IO Label */
(PID.TID 0000.0001)               '02'
(PID.TID 0000.0001)     ;
(PID.TID 0000.0001) PTRACERS_advScheme = /* Advection Scheme */
(PID.TID 0000.0001)                      33
(PID.TID 0000.0001)     ;
(PID.TID 0000.0001) PTRACERS_SOM_Advection = /* tracer uses SOM advection scheme */
(PID.TID 0000.0001)                   F
(PID.TID 0000.0001)     ;
(PID.TID 0000.0001) PTRACERS_ImplVertAdv = /* implicit vert. advection flag */
(PID.TID 0000.0001)                   F
(PID.TID 0000.0001)     ;
(PID.TID 0000.0001) PTRACERS_diffKh = /* Laplacian Diffusivity */
(PID.TID 0000.0001)                 0.000000000000000E+00
(PID.TID 0000.0001)     ;
(PID.TID 0000.0001) PTRACERS_diffK4 = /* Biharmonic Diffusivity */
(PID.TID 0000.0001)                 0.000000000000000E+00
(PID.TID 0000.0001)     ;
(PID.TID 0000.0001) PTRACERS_diffKrNr = /* Vertical Diffusivity */
(PID.TID 0000.0001)    24 @  1.000000000000000E-06              /* K =  1: 24 */
(PID.TID 0000.0001)     ;
(PID.TID 0000.0001) PTRACERS_useGMRedi = /* apply GM-Redi */
(PID.TID 0000.0001)                   F
(PID.TID 0000.0001)     ;
(PID.TID 0000.0001) PTRACERS_useDWNSLP = /* apply DOWN-SLOPE Flow */
(PID.TID 0000.0001)                   F
(PID.TID 0000.0001)     ;
(PID.TID 0000.0001) PTRACERS_useKPP = /* apply KPP scheme */
(PID.TID 0000.0001)                   T
(PID.TID 0000.0001)     ;
(PID.TID 0000.0001) PTRACERS_ref = /* Reference vertical profile */
(PID.TID 0000.0001)    24 @  0.000000000000000E+00              /* K =  1: 24 */
(PID.TID 0000.0001)     ;
(PID.TID 0000.0001) PTRACERS_EvPrRn =/* tracer conc. in Evap. & Rain */
(PID.TID 0000.0001)                 1.234567000000000E+05
(PID.TID 0000.0001)     ;
(PID.TID 0000.0001)  -----------------------------------
(PID.TID 0000.0001)  tracer number :    3
(PID.TID 0000.0001) PTRACERS_names = /* Tracer short name */
(PID.TID 0000.0001)               'NO2'
(PID.TID 0000.0001)     ;
(PID.TID 0000.0001) PTRACERS_long_names = /* Tracer long name */
(PID.TID 0000.0001)               ''
(PID.TID 0000.0001)     ;
(PID.TID 0000.0001) PTRACERS_ioLabel = /* tracer IO Label */
(PID.TID 0000.0001)               '03'
(PID.TID 0000.0001)     ;
(PID.TID 0000.0001) PTRACERS_advScheme = /* Advection Scheme */
(PID.TID 0000.0001)                      33
(PID.TID 0000.0001)     ;
(PID.TID 0000.0001) PTRACERS_SOM_Advection = /* tracer uses SOM advection scheme */
(PID.TID 0000.0001)                   F
(PID.TID 0000.0001)     ;
(PID.TID 0000.0001) PTRACERS_ImplVertAdv = /* implicit vert. advection flag */
(PID.TID 0000.0001)                   F
(PID.TID 0000.0001)     ;
(PID.TID 0000.0001) PTRACERS_diffKh = /* Laplacian Diffusivity */
(PID.TID 0000.0001)                 0.000000000000000E+00
(PID.TID 0000.0001)     ;
(PID.TID 0000.0001) PTRACERS_diffK4 = /* Biharmonic Diffusivity */
(PID.TID 0000.0001)                 0.000000000000000E+00
(PID.TID 0000.0001)     ;
(PID.TID 0000.0001) PTRACERS_diffKrNr = /* Vertical Diffusivity */
(PID.TID 0000.0001)    24 @  1.000000000000000E-06              /* K =  1: 24 */
(PID.TID 0000.0001)     ;
(PID.TID 0000.0001) PTRACERS_useGMRedi = /* apply GM-Redi */
(PID.TID 0000.0001)                   F
(PID.TID 0000.0001)     ;
(PID.TID 0000.0001) PTRACERS_useDWNSLP = /* apply DOWN-SLOPE Flow */
(PID.TID 0000.0001)                   F
(PID.TID 0000.0001)     ;
(PID.TID 0000.0001) PTRACERS_useKPP = /* apply KPP scheme */
(PID.TID 0000.0001)                   T
(PID.TID 0000.0001)     ;
(PID.TID 0000.0001) PTRACERS_ref = /* Reference vertical profile */
(PID.TID 0000.0001)    24 @  0.000000000000000E+00              /* K =  1: 24 */
(PID.TID 0000.0001)     ;
(PID.TID 0000.0001) PTRACERS_EvPrRn =/* tracer conc. in Evap. & Rain */
(PID.TID 0000.0001)                 1.234567000000000E+05
(PID.TID 0000.0001)     ;
(PID.TID 0000.0001)  -----------------------------------
(PID.TID 0000.0001)  tracer number :    4
(PID.TID 0000.0001) PTRACERS_names = /* Tracer short name */
(PID.TID 0000.0001)               'NO3'
(PID.TID 0000.0001)     ;
(PID.TID 0000.0001) PTRACERS_long_names = /* Tracer long name */
(PID.TID 0000.0001)               ''
(PID.TID 0000.0001)     ;
(PID.TID 0000.0001) PTRACERS_ioLabel = /* tracer IO Label */
(PID.TID 0000.0001)               '04'
(PID.TID 0000.0001)     ;
(PID.TID 0000.0001) PTRACERS_advScheme = /* Advection Scheme */
(PID.TID 0000.0001)                      33
(PID.TID 0000.0001)     ;
(PID.TID 0000.0001) PTRACERS_SOM_Advection = /* tracer uses SOM advection scheme */
(PID.TID 0000.0001)                   F
(PID.TID 0000.0001)     ;
(PID.TID 0000.0001) PTRACERS_ImplVertAdv = /* implicit vert. advection flag */
(PID.TID 0000.0001)                   F
(PID.TID 0000.0001)     ;
(PID.TID 0000.0001) PTRACERS_diffKh = /* Laplacian Diffusivity */
(PID.TID 0000.0001)                 0.000000000000000E+00
(PID.TID 0000.0001)     ;
(PID.TID 0000.0001) PTRACERS_diffK4 = /* Biharmonic Diffusivity */
(PID.TID 0000.0001)                 0.000000000000000E+00
(PID.TID 0000.0001)     ;
(PID.TID 0000.0001) PTRACERS_diffKrNr = /* Vertical Diffusivity */
(PID.TID 0000.0001)    24 @  1.000000000000000E-06              /* K =  1: 24 */
(PID.TID 0000.0001)     ;
(PID.TID 0000.0001) PTRACERS_useGMRedi = /* apply GM-Redi */
(PID.TID 0000.0001)                   F
(PID.TID 0000.0001)     ;
(PID.TID 0000.0001) PTRACERS_useDWNSLP = /* apply DOWN-SLOPE Flow */
(PID.TID 0000.0001)                   F
(PID.TID 0000.0001)     ;
(PID.TID 0000.0001) PTRACERS_useKPP = /* apply KPP scheme */
(PID.TID 0000.0001)                   T
(PID.TID 0000.0001)     ;
(PID.TID 0000.0001) PTRACERS_ref = /* Reference vertical profile */
(PID.TID 0000.0001)    24 @  0.000000000000000E+00              /* K =  1: 24 */
(PID.TID 0000.0001)     ;
(PID.TID 0000.0001) PTRACERS_EvPrRn =/* tracer conc. in Evap. & Rain */
(PID.TID 0000.0001)                 1.234567000000000E+05
(PID.TID 0000.0001)     ;
(PID.TID 0000.0001)  -----------------------------------
(PID.TID 0000.0001)  tracer number :    5
(PID.TID 0000.0001) PTRACERS_names = /* Tracer short name */
(PID.TID 0000.0001)               'PO4'
(PID.TID 0000.0001)     ;
(PID.TID 0000.0001) PTRACERS_long_names = /* Tracer long name */
(PID.TID 0000.0001)               ''
(PID.TID 0000.0001)     ;
(PID.TID 0000.0001) PTRACERS_ioLabel = /* tracer IO Label */
(PID.TID 0000.0001)               '05'
(PID.TID 0000.0001)     ;
(PID.TID 0000.0001) PTRACERS_advScheme = /* Advection Scheme */
(PID.TID 0000.0001)                      33
(PID.TID 0000.0001)     ;
(PID.TID 0000.0001) PTRACERS_SOM_Advection = /* tracer uses SOM advection scheme */
(PID.TID 0000.0001)                   F
(PID.TID 0000.0001)     ;
(PID.TID 0000.0001) PTRACERS_ImplVertAdv = /* implicit vert. advection flag */
(PID.TID 0000.0001)                   F
(PID.TID 0000.0001)     ;
(PID.TID 0000.0001) PTRACERS_diffKh = /* Laplacian Diffusivity */
(PID.TID 0000.0001)                 0.000000000000000E+00
(PID.TID 0000.0001)     ;
(PID.TID 0000.0001) PTRACERS_diffK4 = /* Biharmonic Diffusivity */
(PID.TID 0000.0001)                 0.000000000000000E+00
(PID.TID 0000.0001)     ;
(PID.TID 0000.0001) PTRACERS_diffKrNr = /* Vertical Diffusivity */
(PID.TID 0000.0001)    24 @  1.000000000000000E-06              /* K =  1: 24 */
(PID.TID 0000.0001)     ;
(PID.TID 0000.0001) PTRACERS_useGMRedi = /* apply GM-Redi */
(PID.TID 0000.0001)                   F
(PID.TID 0000.0001)     ;
(PID.TID 0000.0001) PTRACERS_useDWNSLP = /* apply DOWN-SLOPE Flow */
(PID.TID 0000.0001)                   F
(PID.TID 0000.0001)     ;
(PID.TID 0000.0001) PTRACERS_useKPP = /* apply KPP scheme */
(PID.TID 0000.0001)                   T
(PID.TID 0000.0001)     ;
(PID.TID 0000.0001) PTRACERS_ref = /* Reference vertical profile */
(PID.TID 0000.0001)    24 @  0.000000000000000E+00              /* K =  1: 24 */
(PID.TID 0000.0001)     ;
(PID.TID 0000.0001) PTRACERS_EvPrRn =/* tracer conc. in Evap. & Rain */
(PID.TID 0000.0001)                 1.234567000000000E+05
(PID.TID 0000.0001)     ;
(PID.TID 0000.0001)  -----------------------------------
(PID.TID 0000.0001)  tracer number :    6
(PID.TID 0000.0001) PTRACERS_names = /* Tracer short name */
(PID.TID 0000.0001)               'SiO2'
(PID.TID 0000.0001)     ;
(PID.TID 0000.0001) PTRACERS_long_names = /* Tracer long name */
(PID.TID 0000.0001)               ''
(PID.TID 0000.0001)     ;
(PID.TID 0000.0001) PTRACERS_ioLabel = /* tracer IO Label */
(PID.TID 0000.0001)               '06'
(PID.TID 0000.0001)     ;
(PID.TID 0000.0001) PTRACERS_advScheme = /* Advection Scheme */
(PID.TID 0000.0001)                      33
(PID.TID 0000.0001)     ;
(PID.TID 0000.0001) PTRACERS_SOM_Advection = /* tracer uses SOM advection scheme */
(PID.TID 0000.0001)                   F
(PID.TID 0000.0001)     ;
(PID.TID 0000.0001) PTRACERS_ImplVertAdv = /* implicit vert. advection flag */
(PID.TID 0000.0001)                   F
(PID.TID 0000.0001)     ;
(PID.TID 0000.0001) PTRACERS_diffKh = /* Laplacian Diffusivity */
(PID.TID 0000.0001)                 0.000000000000000E+00
(PID.TID 0000.0001)     ;
(PID.TID 0000.0001) PTRACERS_diffK4 = /* Biharmonic Diffusivity */
(PID.TID 0000.0001)                 0.000000000000000E+00
(PID.TID 0000.0001)     ;
(PID.TID 0000.0001) PTRACERS_diffKrNr = /* Vertical Diffusivity */
(PID.TID 0000.0001)    24 @  1.000000000000000E-06              /* K =  1: 24 */
(PID.TID 0000.0001)     ;
(PID.TID 0000.0001) PTRACERS_useGMRedi = /* apply GM-Redi */
(PID.TID 0000.0001)                   F
(PID.TID 0000.0001)     ;
(PID.TID 0000.0001) PTRACERS_useDWNSLP = /* apply DOWN-SLOPE Flow */
(PID.TID 0000.0001)                   F
(PID.TID 0000.0001)     ;
(PID.TID 0000.0001) PTRACERS_useKPP = /* apply KPP scheme */
(PID.TID 0000.0001)                   T
(PID.TID 0000.0001)     ;
(PID.TID 0000.0001) PTRACERS_ref = /* Reference vertical profile */
(PID.TID 0000.0001)    24 @  0.000000000000000E+00              /* K =  1: 24 */
(PID.TID 0000.0001)     ;
(PID.TID 0000.0001) PTRACERS_EvPrRn =/* tracer conc. in Evap. & Rain */
(PID.TID 0000.0001)                 1.234567000000000E+05
(PID.TID 0000.0001)     ;
(PID.TID 0000.0001)  -----------------------------------
(PID.TID 0000.0001)  tracer number :    7
(PID.TID 0000.0001) PTRACERS_names = /* Tracer short name */
(PID.TID 0000.0001)               'FeT'
(PID.TID 0000.0001)     ;
(PID.TID 0000.0001) PTRACERS_long_names = /* Tracer long name */
(PID.TID 0000.0001)               ''
(PID.TID 0000.0001)     ;
(PID.TID 0000.0001) PTRACERS_ioLabel = /* tracer IO Label */
(PID.TID 0000.0001)               '07'
(PID.TID 0000.0001)     ;
(PID.TID 0000.0001) PTRACERS_advScheme = /* Advection Scheme */
(PID.TID 0000.0001)                      33
(PID.TID 0000.0001)     ;
(PID.TID 0000.0001) PTRACERS_SOM_Advection = /* tracer uses SOM advection scheme */
(PID.TID 0000.0001)                   F
(PID.TID 0000.0001)     ;
(PID.TID 0000.0001) PTRACERS_ImplVertAdv = /* implicit vert. advection flag */
(PID.TID 0000.0001)                   F
(PID.TID 0000.0001)     ;
(PID.TID 0000.0001) PTRACERS_diffKh = /* Laplacian Diffusivity */
(PID.TID 0000.0001)                 0.000000000000000E+00
(PID.TID 0000.0001)     ;
(PID.TID 0000.0001) PTRACERS_diffK4 = /* Biharmonic Diffusivity */
(PID.TID 0000.0001)                 0.000000000000000E+00
(PID.TID 0000.0001)     ;
(PID.TID 0000.0001) PTRACERS_diffKrNr = /* Vertical Diffusivity */
(PID.TID 0000.0001)    24 @  1.000000000000000E-06              /* K =  1: 24 */
(PID.TID 0000.0001)     ;
(PID.TID 0000.0001) PTRACERS_useGMRedi = /* apply GM-Redi */
(PID.TID 0000.0001)                   F
(PID.TID 0000.0001)     ;
(PID.TID 0000.0001) PTRACERS_useDWNSLP = /* apply DOWN-SLOPE Flow */
(PID.TID 0000.0001)                   F
(PID.TID 0000.0001)     ;
(PID.TID 0000.0001) PTRACERS_useKPP = /* apply KPP scheme */
(PID.TID 0000.0001)                   T
(PID.TID 0000.0001)     ;
(PID.TID 0000.0001) PTRACERS_ref = /* Reference vertical profile */
(PID.TID 0000.0001)    24 @  0.000000000000000E+00              /* K =  1: 24 */
(PID.TID 0000.0001)     ;
(PID.TID 0000.0001) PTRACERS_EvPrRn =/* tracer conc. in Evap. & Rain */
(PID.TID 0000.0001)                 1.234567000000000E+05
(PID.TID 0000.0001)     ;
(PID.TID 0000.0001)  -----------------------------------
(PID.TID 0000.0001)  tracer number :    8
(PID.TID 0000.0001) PTRACERS_names = /* Tracer short name */
(PID.TID 0000.0001)               'DOC'
(PID.TID 0000.0001)     ;
(PID.TID 0000.0001) PTRACERS_long_names = /* Tracer long name */
(PID.TID 0000.0001)               ''
(PID.TID 0000.0001)     ;
(PID.TID 0000.0001) PTRACERS_ioLabel = /* tracer IO Label */
(PID.TID 0000.0001)               '08'
(PID.TID 0000.0001)     ;
(PID.TID 0000.0001) PTRACERS_advScheme = /* Advection Scheme */
(PID.TID 0000.0001)                      33
(PID.TID 0000.0001)     ;
(PID.TID 0000.0001) PTRACERS_SOM_Advection = /* tracer uses SOM advection scheme */
(PID.TID 0000.0001)                   F
(PID.TID 0000.0001)     ;
(PID.TID 0000.0001) PTRACERS_ImplVertAdv = /* implicit vert. advection flag */
(PID.TID 0000.0001)                   F
(PID.TID 0000.0001)     ;
(PID.TID 0000.0001) PTRACERS_diffKh = /* Laplacian Diffusivity */
(PID.TID 0000.0001)                 0.000000000000000E+00
(PID.TID 0000.0001)     ;
(PID.TID 0000.0001) PTRACERS_diffK4 = /* Biharmonic Diffusivity */
(PID.TID 0000.0001)                 0.000000000000000E+00
(PID.TID 0000.0001)     ;
(PID.TID 0000.0001) PTRACERS_diffKrNr = /* Vertical Diffusivity */
(PID.TID 0000.0001)    24 @  1.000000000000000E-06              /* K =  1: 24 */
(PID.TID 0000.0001)     ;
(PID.TID 0000.0001) PTRACERS_useGMRedi = /* apply GM-Redi */
(PID.TID 0000.0001)                   F
(PID.TID 0000.0001)     ;
(PID.TID 0000.0001) PTRACERS_useDWNSLP = /* apply DOWN-SLOPE Flow */
(PID.TID 0000.0001)                   F
(PID.TID 0000.0001)     ;
(PID.TID 0000.0001) PTRACERS_useKPP = /* apply KPP scheme */
(PID.TID 0000.0001)                   T
(PID.TID 0000.0001)     ;
(PID.TID 0000.0001) PTRACERS_ref = /* Reference vertical profile */
(PID.TID 0000.0001)    24 @  0.000000000000000E+00              /* K =  1: 24 */
(PID.TID 0000.0001)     ;
(PID.TID 0000.0001) PTRACERS_EvPrRn =/* tracer conc. in Evap. & Rain */
(PID.TID 0000.0001)                 1.234567000000000E+05
(PID.TID 0000.0001)     ;
(PID.TID 0000.0001)  -----------------------------------
(PID.TID 0000.0001)  tracer number :    9
(PID.TID 0000.0001) PTRACERS_names = /* Tracer short name */
(PID.TID 0000.0001)               'DON'
(PID.TID 0000.0001)     ;
(PID.TID 0000.0001) PTRACERS_long_names = /* Tracer long name */
(PID.TID 0000.0001)               ''
(PID.TID 0000.0001)     ;
(PID.TID 0000.0001) PTRACERS_ioLabel = /* tracer IO Label */
(PID.TID 0000.0001)               '09'
(PID.TID 0000.0001)     ;
(PID.TID 0000.0001) PTRACERS_advScheme = /* Advection Scheme */
(PID.TID 0000.0001)                      33
(PID.TID 0000.0001)     ;
(PID.TID 0000.0001) PTRACERS_SOM_Advection = /* tracer uses SOM advection scheme */
(PID.TID 0000.0001)                   F
(PID.TID 0000.0001)     ;
(PID.TID 0000.0001) PTRACERS_ImplVertAdv = /* implicit vert. advection flag */
(PID.TID 0000.0001)                   F
(PID.TID 0000.0001)     ;
(PID.TID 0000.0001) PTRACERS_diffKh = /* Laplacian Diffusivity */
(PID.TID 0000.0001)                 0.000000000000000E+00
(PID.TID 0000.0001)     ;
(PID.TID 0000.0001) PTRACERS_diffK4 = /* Biharmonic Diffusivity */
(PID.TID 0000.0001)                 0.000000000000000E+00
(PID.TID 0000.0001)     ;
(PID.TID 0000.0001) PTRACERS_diffKrNr = /* Vertical Diffusivity */
(PID.TID 0000.0001)    24 @  1.000000000000000E-06              /* K =  1: 24 */
(PID.TID 0000.0001)     ;
(PID.TID 0000.0001) PTRACERS_useGMRedi = /* apply GM-Redi */
(PID.TID 0000.0001)                   F
(PID.TID 0000.0001)     ;
(PID.TID 0000.0001) PTRACERS_useDWNSLP = /* apply DOWN-SLOPE Flow */
(PID.TID 0000.0001)                   F
(PID.TID 0000.0001)     ;
(PID.TID 0000.0001) PTRACERS_useKPP = /* apply KPP scheme */
(PID.TID 0000.0001)                   T
(PID.TID 0000.0001)     ;
(PID.TID 0000.0001) PTRACERS_ref = /* Reference vertical profile */
(PID.TID 0000.0001)    24 @  0.000000000000000E+00              /* K =  1: 24 */
(PID.TID 0000.0001)     ;
(PID.TID 0000.0001) PTRACERS_EvPrRn =/* tracer conc. in Evap. & Rain */
(PID.TID 0000.0001)                 1.234567000000000E+05
(PID.TID 0000.0001)     ;
(PID.TID 0000.0001)  -----------------------------------
(PID.TID 0000.0001)  tracer number :   10
(PID.TID 0000.0001) PTRACERS_names = /* Tracer short name */
(PID.TID 0000.0001)               'DOP'
(PID.TID 0000.0001)     ;
(PID.TID 0000.0001) PTRACERS_long_names = /* Tracer long name */
(PID.TID 0000.0001)               ''
(PID.TID 0000.0001)     ;
(PID.TID 0000.0001) PTRACERS_ioLabel = /* tracer IO Label */
(PID.TID 0000.0001)               '10'
(PID.TID 0000.0001)     ;
(PID.TID 0000.0001) PTRACERS_advScheme = /* Advection Scheme */
(PID.TID 0000.0001)                      33
(PID.TID 0000.0001)     ;
(PID.TID 0000.0001) PTRACERS_SOM_Advection = /* tracer uses SOM advection scheme */
(PID.TID 0000.0001)                   F
(PID.TID 0000.0001)     ;
(PID.TID 0000.0001) PTRACERS_ImplVertAdv = /* implicit vert. advection flag */
(PID.TID 0000.0001)                   F
(PID.TID 0000.0001)     ;
(PID.TID 0000.0001) PTRACERS_diffKh = /* Laplacian Diffusivity */
(PID.TID 0000.0001)                 0.000000000000000E+00
(PID.TID 0000.0001)     ;
(PID.TID 0000.0001) PTRACERS_diffK4 = /* Biharmonic Diffusivity */
(PID.TID 0000.0001)                 0.000000000000000E+00
(PID.TID 0000.0001)     ;
(PID.TID 0000.0001) PTRACERS_diffKrNr = /* Vertical Diffusivity */
(PID.TID 0000.0001)    24 @  1.000000000000000E-06              /* K =  1: 24 */
(PID.TID 0000.0001)     ;
(PID.TID 0000.0001) PTRACERS_useGMRedi = /* apply GM-Redi */
(PID.TID 0000.0001)                   F
(PID.TID 0000.0001)     ;
(PID.TID 0000.0001) PTRACERS_useDWNSLP = /* apply DOWN-SLOPE Flow */
(PID.TID 0000.0001)                   F
(PID.TID 0000.0001)     ;
(PID.TID 0000.0001) PTRACERS_useKPP = /* apply KPP scheme */
(PID.TID 0000.0001)                   T
(PID.TID 0000.0001)     ;
(PID.TID 0000.0001) PTRACERS_ref = /* Reference vertical profile */
(PID.TID 0000.0001)    24 @  0.000000000000000E+00              /* K =  1: 24 */
(PID.TID 0000.0001)     ;
(PID.TID 0000.0001) PTRACERS_EvPrRn =/* tracer conc. in Evap. & Rain */
(PID.TID 0000.0001)                 1.234567000000000E+05
(PID.TID 0000.0001)     ;
(PID.TID 0000.0001)  -----------------------------------
(PID.TID 0000.0001)  tracer number :   11
(PID.TID 0000.0001) PTRACERS_names = /* Tracer short name */
(PID.TID 0000.0001)               'DOFe'
(PID.TID 0000.0001)     ;
(PID.TID 0000.0001) PTRACERS_long_names = /* Tracer long name */
(PID.TID 0000.0001)               ''
(PID.TID 0000.0001)     ;
(PID.TID 0000.0001) PTRACERS_ioLabel = /* tracer IO Label */
(PID.TID 0000.0001)               '11'
(PID.TID 0000.0001)     ;
(PID.TID 0000.0001) PTRACERS_advScheme = /* Advection Scheme */
(PID.TID 0000.0001)                      33
(PID.TID 0000.0001)     ;
(PID.TID 0000.0001) PTRACERS_SOM_Advection = /* tracer uses SOM advection scheme */
(PID.TID 0000.0001)                   F
(PID.TID 0000.0001)     ;
(PID.TID 0000.0001) PTRACERS_ImplVertAdv = /* implicit vert. advection flag */
(PID.TID 0000.0001)                   F
(PID.TID 0000.0001)     ;
(PID.TID 0000.0001) PTRACERS_diffKh = /* Laplacian Diffusivity */
(PID.TID 0000.0001)                 0.000000000000000E+00
(PID.TID 0000.0001)     ;
(PID.TID 0000.0001) PTRACERS_diffK4 = /* Biharmonic Diffusivity */
(PID.TID 0000.0001)                 0.000000000000000E+00
(PID.TID 0000.0001)     ;
(PID.TID 0000.0001) PTRACERS_diffKrNr = /* Vertical Diffusivity */
(PID.TID 0000.0001)    24 @  1.000000000000000E-06              /* K =  1: 24 */
(PID.TID 0000.0001)     ;
(PID.TID 0000.0001) PTRACERS_useGMRedi = /* apply GM-Redi */
(PID.TID 0000.0001)                   F
(PID.TID 0000.0001)     ;
(PID.TID 0000.0001) PTRACERS_useDWNSLP = /* apply DOWN-SLOPE Flow */
(PID.TID 0000.0001)                   F
(PID.TID 0000.0001)     ;
(PID.TID 0000.0001) PTRACERS_useKPP = /* apply KPP scheme */
(PID.TID 0000.0001)                   T
(PID.TID 0000.0001)     ;
(PID.TID 0000.0001) PTRACERS_ref = /* Reference vertical profile */
(PID.TID 0000.0001)    24 @  0.000000000000000E+00              /* K =  1: 24 */
(PID.TID 0000.0001)     ;
(PID.TID 0000.0001) PTRACERS_EvPrRn =/* tracer conc. in Evap. & Rain */
(PID.TID 0000.0001)                 1.234567000000000E+05
(PID.TID 0000.0001)     ;
(PID.TID 0000.0001)  -----------------------------------
(PID.TID 0000.0001)  tracer number :   12
(PID.TID 0000.0001) PTRACERS_names = /* Tracer short name */
(PID.TID 0000.0001)               'POC'
(PID.TID 0000.0001)     ;
(PID.TID 0000.0001) PTRACERS_long_names = /* Tracer long name */
(PID.TID 0000.0001)               ''
(PID.TID 0000.0001)     ;
(PID.TID 0000.0001) PTRACERS_ioLabel = /* tracer IO Label */
(PID.TID 0000.0001)               '12'
(PID.TID 0000.0001)     ;
(PID.TID 0000.0001) PTRACERS_advScheme = /* Advection Scheme */
(PID.TID 0000.0001)                      33
(PID.TID 0000.0001)     ;
(PID.TID 0000.0001) PTRACERS_SOM_Advection = /* tracer uses SOM advection scheme */
(PID.TID 0000.0001)                   F
(PID.TID 0000.0001)     ;
(PID.TID 0000.0001) PTRACERS_ImplVertAdv = /* implicit vert. advection flag */
(PID.TID 0000.0001)                   F
(PID.TID 0000.0001)     ;
(PID.TID 0000.0001) PTRACERS_diffKh = /* Laplacian Diffusivity */
(PID.TID 0000.0001)                 0.000000000000000E+00
(PID.TID 0000.0001)     ;
(PID.TID 0000.0001) PTRACERS_diffK4 = /* Biharmonic Diffusivity */
(PID.TID 0000.0001)                 0.000000000000000E+00
(PID.TID 0000.0001)     ;
(PID.TID 0000.0001) PTRACERS_diffKrNr = /* Vertical Diffusivity */
(PID.TID 0000.0001)    24 @  1.000000000000000E-06              /* K =  1: 24 */
(PID.TID 0000.0001)     ;
(PID.TID 0000.0001) PTRACERS_useGMRedi = /* apply GM-Redi */
(PID.TID 0000.0001)                   F
(PID.TID 0000.0001)     ;
(PID.TID 0000.0001) PTRACERS_useDWNSLP = /* apply DOWN-SLOPE Flow */
(PID.TID 0000.0001)                   F
(PID.TID 0000.0001)     ;
(PID.TID 0000.0001) PTRACERS_useKPP = /* apply KPP scheme */
(PID.TID 0000.0001)                   T
(PID.TID 0000.0001)     ;
(PID.TID 0000.0001) PTRACERS_ref = /* Reference vertical profile */
(PID.TID 0000.0001)    24 @  0.000000000000000E+00              /* K =  1: 24 */
(PID.TID 0000.0001)     ;
(PID.TID 0000.0001) PTRACERS_EvPrRn =/* tracer conc. in Evap. & Rain */
(PID.TID 0000.0001)                 1.234567000000000E+05
(PID.TID 0000.0001)     ;
(PID.TID 0000.0001)  -----------------------------------
(PID.TID 0000.0001)  tracer number :   13
(PID.TID 0000.0001) PTRACERS_names = /* Tracer short name */
(PID.TID 0000.0001)               'PON'
(PID.TID 0000.0001)     ;
(PID.TID 0000.0001) PTRACERS_long_names = /* Tracer long name */
(PID.TID 0000.0001)               ''
(PID.TID 0000.0001)     ;
(PID.TID 0000.0001) PTRACERS_ioLabel = /* tracer IO Label */
(PID.TID 0000.0001)               '13'
(PID.TID 0000.0001)     ;
(PID.TID 0000.0001) PTRACERS_advScheme = /* Advection Scheme */
(PID.TID 0000.0001)                      33
(PID.TID 0000.0001)     ;
(PID.TID 0000.0001) PTRACERS_SOM_Advection = /* tracer uses SOM advection scheme */
(PID.TID 0000.0001)                   F
(PID.TID 0000.0001)     ;
(PID.TID 0000.0001) PTRACERS_ImplVertAdv = /* implicit vert. advection flag */
(PID.TID 0000.0001)                   F
(PID.TID 0000.0001)     ;
(PID.TID 0000.0001) PTRACERS_diffKh = /* Laplacian Diffusivity */
(PID.TID 0000.0001)                 0.000000000000000E+00
(PID.TID 0000.0001)     ;
(PID.TID 0000.0001) PTRACERS_diffK4 = /* Biharmonic Diffusivity */
(PID.TID 0000.0001)                 0.000000000000000E+00
(PID.TID 0000.0001)     ;
(PID.TID 0000.0001) PTRACERS_diffKrNr = /* Vertical Diffusivity */
(PID.TID 0000.0001)    24 @  1.000000000000000E-06              /* K =  1: 24 */
(PID.TID 0000.0001)     ;
(PID.TID 0000.0001) PTRACERS_useGMRedi = /* apply GM-Redi */
(PID.TID 0000.0001)                   F
(PID.TID 0000.0001)     ;
(PID.TID 0000.0001) PTRACERS_useDWNSLP = /* apply DOWN-SLOPE Flow */
(PID.TID 0000.0001)                   F
(PID.TID 0000.0001)     ;
(PID.TID 0000.0001) PTRACERS_useKPP = /* apply KPP scheme */
(PID.TID 0000.0001)                   T
(PID.TID 0000.0001)     ;
(PID.TID 0000.0001) PTRACERS_ref = /* Reference vertical profile */
(PID.TID 0000.0001)    24 @  0.000000000000000E+00              /* K =  1: 24 */
(PID.TID 0000.0001)     ;
(PID.TID 0000.0001) PTRACERS_EvPrRn =/* tracer conc. in Evap. & Rain */
(PID.TID 0000.0001)                 1.234567000000000E+05
(PID.TID 0000.0001)     ;
(PID.TID 0000.0001)  -----------------------------------
(PID.TID 0000.0001)  tracer number :   14
(PID.TID 0000.0001) PTRACERS_names = /* Tracer short name */
(PID.TID 0000.0001)               'POP'
(PID.TID 0000.0001)     ;
(PID.TID 0000.0001) PTRACERS_long_names = /* Tracer long name */
(PID.TID 0000.0001)               ''
(PID.TID 0000.0001)     ;
(PID.TID 0000.0001) PTRACERS_ioLabel = /* tracer IO Label */
(PID.TID 0000.0001)               '14'
(PID.TID 0000.0001)     ;
(PID.TID 0000.0001) PTRACERS_advScheme = /* Advection Scheme */
(PID.TID 0000.0001)                      33
(PID.TID 0000.0001)     ;
(PID.TID 0000.0001) PTRACERS_SOM_Advection = /* tracer uses SOM advection scheme */
(PID.TID 0000.0001)                   F
(PID.TID 0000.0001)     ;
(PID.TID 0000.0001) PTRACERS_ImplVertAdv = /* implicit vert. advection flag */
(PID.TID 0000.0001)                   F
(PID.TID 0000.0001)     ;
(PID.TID 0000.0001) PTRACERS_diffKh = /* Laplacian Diffusivity */
(PID.TID 0000.0001)                 0.000000000000000E+00
(PID.TID 0000.0001)     ;
(PID.TID 0000.0001) PTRACERS_diffK4 = /* Biharmonic Diffusivity */
(PID.TID 0000.0001)                 0.000000000000000E+00
(PID.TID 0000.0001)     ;
(PID.TID 0000.0001) PTRACERS_diffKrNr = /* Vertical Diffusivity */
(PID.TID 0000.0001)    24 @  1.000000000000000E-06              /* K =  1: 24 */
(PID.TID 0000.0001)     ;
(PID.TID 0000.0001) PTRACERS_useGMRedi = /* apply GM-Redi */
(PID.TID 0000.0001)                   F
(PID.TID 0000.0001)     ;
(PID.TID 0000.0001) PTRACERS_useDWNSLP = /* apply DOWN-SLOPE Flow */
(PID.TID 0000.0001)                   F
(PID.TID 0000.0001)     ;
(PID.TID 0000.0001) PTRACERS_useKPP = /* apply KPP scheme */
(PID.TID 0000.0001)                   T
(PID.TID 0000.0001)     ;
(PID.TID 0000.0001) PTRACERS_ref = /* Reference vertical profile */
(PID.TID 0000.0001)    24 @  0.000000000000000E+00              /* K =  1: 24 */
(PID.TID 0000.0001)     ;
(PID.TID 0000.0001) PTRACERS_EvPrRn =/* tracer conc. in Evap. & Rain */
(PID.TID 0000.0001)                 1.234567000000000E+05
(PID.TID 0000.0001)     ;
(PID.TID 0000.0001)  -----------------------------------
(PID.TID 0000.0001)  tracer number :   15
(PID.TID 0000.0001) PTRACERS_names = /* Tracer short name */
(PID.TID 0000.0001)               'POSi'
(PID.TID 0000.0001)     ;
(PID.TID 0000.0001) PTRACERS_long_names = /* Tracer long name */
(PID.TID 0000.0001)               ''
(PID.TID 0000.0001)     ;
(PID.TID 0000.0001) PTRACERS_ioLabel = /* tracer IO Label */
(PID.TID 0000.0001)               '15'
(PID.TID 0000.0001)     ;
(PID.TID 0000.0001) PTRACERS_advScheme = /* Advection Scheme */
(PID.TID 0000.0001)                      33
(PID.TID 0000.0001)     ;
(PID.TID 0000.0001) PTRACERS_SOM_Advection = /* tracer uses SOM advection scheme */
(PID.TID 0000.0001)                   F
(PID.TID 0000.0001)     ;
(PID.TID 0000.0001) PTRACERS_ImplVertAdv = /* implicit vert. advection flag */
(PID.TID 0000.0001)                   F
(PID.TID 0000.0001)     ;
(PID.TID 0000.0001) PTRACERS_diffKh = /* Laplacian Diffusivity */
(PID.TID 0000.0001)                 0.000000000000000E+00
(PID.TID 0000.0001)     ;
(PID.TID 0000.0001) PTRACERS_diffK4 = /* Biharmonic Diffusivity */
(PID.TID 0000.0001)                 0.000000000000000E+00
(PID.TID 0000.0001)     ;
(PID.TID 0000.0001) PTRACERS_diffKrNr = /* Vertical Diffusivity */
(PID.TID 0000.0001)    24 @  1.000000000000000E-06              /* K =  1: 24 */
(PID.TID 0000.0001)     ;
(PID.TID 0000.0001) PTRACERS_useGMRedi = /* apply GM-Redi */
(PID.TID 0000.0001)                   F
(PID.TID 0000.0001)     ;
(PID.TID 0000.0001) PTRACERS_useDWNSLP = /* apply DOWN-SLOPE Flow */
(PID.TID 0000.0001)                   F
(PID.TID 0000.0001)     ;
(PID.TID 0000.0001) PTRACERS_useKPP = /* apply KPP scheme */
(PID.TID 0000.0001)                   T
(PID.TID 0000.0001)     ;
(PID.TID 0000.0001) PTRACERS_ref = /* Reference vertical profile */
(PID.TID 0000.0001)    24 @  0.000000000000000E+00              /* K =  1: 24 */
(PID.TID 0000.0001)     ;
(PID.TID 0000.0001) PTRACERS_EvPrRn =/* tracer conc. in Evap. & Rain */
(PID.TID 0000.0001)                 1.234567000000000E+05
(PID.TID 0000.0001)     ;
(PID.TID 0000.0001)  -----------------------------------
(PID.TID 0000.0001)  tracer number :   16
(PID.TID 0000.0001) PTRACERS_names = /* Tracer short name */
(PID.TID 0000.0001)               'POFe'
(PID.TID 0000.0001)     ;
(PID.TID 0000.0001) PTRACERS_long_names = /* Tracer long name */
(PID.TID 0000.0001)               ''
(PID.TID 0000.0001)     ;
(PID.TID 0000.0001) PTRACERS_ioLabel = /* tracer IO Label */
(PID.TID 0000.0001)               '16'
(PID.TID 0000.0001)     ;
(PID.TID 0000.0001) PTRACERS_advScheme = /* Advection Scheme */
(PID.TID 0000.0001)                      33
(PID.TID 0000.0001)     ;
(PID.TID 0000.0001) PTRACERS_SOM_Advection = /* tracer uses SOM advection scheme */
(PID.TID 0000.0001)                   F
(PID.TID 0000.0001)     ;
(PID.TID 0000.0001) PTRACERS_ImplVertAdv = /* implicit vert. advection flag */
(PID.TID 0000.0001)                   F
(PID.TID 0000.0001)     ;
(PID.TID 0000.0001) PTRACERS_diffKh = /* Laplacian Diffusivity */
(PID.TID 0000.0001)                 0.000000000000000E+00
(PID.TID 0000.0001)     ;
(PID.TID 0000.0001) PTRACERS_diffK4 = /* Biharmonic Diffusivity */
(PID.TID 0000.0001)                 0.000000000000000E+00
(PID.TID 0000.0001)     ;
(PID.TID 0000.0001) PTRACERS_diffKrNr = /* Vertical Diffusivity */
(PID.TID 0000.0001)    24 @  1.000000000000000E-06              /* K =  1: 24 */
(PID.TID 0000.0001)     ;
(PID.TID 0000.0001) PTRACERS_useGMRedi = /* apply GM-Redi */
(PID.TID 0000.0001)                   F
(PID.TID 0000.0001)     ;
(PID.TID 0000.0001) PTRACERS_useDWNSLP = /* apply DOWN-SLOPE Flow */
(PID.TID 0000.0001)                   F
(PID.TID 0000.0001)     ;
(PID.TID 0000.0001) PTRACERS_useKPP = /* apply KPP scheme */
(PID.TID 0000.0001)                   T
(PID.TID 0000.0001)     ;
(PID.TID 0000.0001) PTRACERS_ref = /* Reference vertical profile */
(PID.TID 0000.0001)    24 @  0.000000000000000E+00              /* K =  1: 24 */
(PID.TID 0000.0001)     ;
(PID.TID 0000.0001) PTRACERS_EvPrRn =/* tracer conc. in Evap. & Rain */
(PID.TID 0000.0001)                 1.234567000000000E+05
(PID.TID 0000.0001)     ;
(PID.TID 0000.0001)  -----------------------------------
(PID.TID 0000.0001)  tracer number :   17
(PID.TID 0000.0001) PTRACERS_names = /* Tracer short name */
(PID.TID 0000.0001)               'PIC'
(PID.TID 0000.0001)     ;
(PID.TID 0000.0001) PTRACERS_long_names = /* Tracer long name */
(PID.TID 0000.0001)               ''
(PID.TID 0000.0001)     ;
(PID.TID 0000.0001) PTRACERS_ioLabel = /* tracer IO Label */
(PID.TID 0000.0001)               '17'
(PID.TID 0000.0001)     ;
(PID.TID 0000.0001) PTRACERS_advScheme = /* Advection Scheme */
(PID.TID 0000.0001)                      33
(PID.TID 0000.0001)     ;
(PID.TID 0000.0001) PTRACERS_SOM_Advection = /* tracer uses SOM advection scheme */
(PID.TID 0000.0001)                   F
(PID.TID 0000.0001)     ;
(PID.TID 0000.0001) PTRACERS_ImplVertAdv = /* implicit vert. advection flag */
(PID.TID 0000.0001)                   F
(PID.TID 0000.0001)     ;
(PID.TID 0000.0001) PTRACERS_diffKh = /* Laplacian Diffusivity */
(PID.TID 0000.0001)                 0.000000000000000E+00
(PID.TID 0000.0001)     ;
(PID.TID 0000.0001) PTRACERS_diffK4 = /* Biharmonic Diffusivity */
(PID.TID 0000.0001)                 0.000000000000000E+00
(PID.TID 0000.0001)     ;
(PID.TID 0000.0001) PTRACERS_diffKrNr = /* Vertical Diffusivity */
(PID.TID 0000.0001)    24 @  1.000000000000000E-06              /* K =  1: 24 */
(PID.TID 0000.0001)     ;
(PID.TID 0000.0001) PTRACERS_useGMRedi = /* apply GM-Redi */
(PID.TID 0000.0001)                   F
(PID.TID 0000.0001)     ;
(PID.TID 0000.0001) PTRACERS_useDWNSLP = /* apply DOWN-SLOPE Flow */
(PID.TID 0000.0001)                   F
(PID.TID 0000.0001)     ;
(PID.TID 0000.0001) PTRACERS_useKPP = /* apply KPP scheme */
(PID.TID 0000.0001)                   T
(PID.TID 0000.0001)     ;
(PID.TID 0000.0001) PTRACERS_ref = /* Reference vertical profile */
(PID.TID 0000.0001)    24 @  0.000000000000000E+00              /* K =  1: 24 */
(PID.TID 0000.0001)     ;
(PID.TID 0000.0001) PTRACERS_EvPrRn =/* tracer conc. in Evap. & Rain */
(PID.TID 0000.0001)                 1.234567000000000E+05
(PID.TID 0000.0001)     ;
(PID.TID 0000.0001)  -----------------------------------
(PID.TID 0000.0001)  tracer number :   18
(PID.TID 0000.0001) PTRACERS_names = /* Tracer short name */
(PID.TID 0000.0001)               'c01'
(PID.TID 0000.0001)     ;
(PID.TID 0000.0001) PTRACERS_long_names = /* Tracer long name */
(PID.TID 0000.0001)               ''
(PID.TID 0000.0001)     ;
(PID.TID 0000.0001) PTRACERS_ioLabel = /* tracer IO Label */
(PID.TID 0000.0001)               '18'
(PID.TID 0000.0001)     ;
(PID.TID 0000.0001) PTRACERS_advScheme = /* Advection Scheme */
(PID.TID 0000.0001)                      33
(PID.TID 0000.0001)     ;
(PID.TID 0000.0001) PTRACERS_SOM_Advection = /* tracer uses SOM advection scheme */
(PID.TID 0000.0001)                   F
(PID.TID 0000.0001)     ;
(PID.TID 0000.0001) PTRACERS_ImplVertAdv = /* implicit vert. advection flag */
(PID.TID 0000.0001)                   F
(PID.TID 0000.0001)     ;
(PID.TID 0000.0001) PTRACERS_diffKh = /* Laplacian Diffusivity */
(PID.TID 0000.0001)                 0.000000000000000E+00
(PID.TID 0000.0001)     ;
(PID.TID 0000.0001) PTRACERS_diffK4 = /* Biharmonic Diffusivity */
(PID.TID 0000.0001)                 0.000000000000000E+00
(PID.TID 0000.0001)     ;
(PID.TID 0000.0001) PTRACERS_diffKrNr = /* Vertical Diffusivity */
(PID.TID 0000.0001)    24 @  1.000000000000000E-06              /* K =  1: 24 */
(PID.TID 0000.0001)     ;
(PID.TID 0000.0001) PTRACERS_useGMRedi = /* apply GM-Redi */
(PID.TID 0000.0001)                   F
(PID.TID 0000.0001)     ;
(PID.TID 0000.0001) PTRACERS_useDWNSLP = /* apply DOWN-SLOPE Flow */
(PID.TID 0000.0001)                   F
(PID.TID 0000.0001)     ;
(PID.TID 0000.0001) PTRACERS_useKPP = /* apply KPP scheme */
(PID.TID 0000.0001)                   T
(PID.TID 0000.0001)     ;
(PID.TID 0000.0001) PTRACERS_ref = /* Reference vertical profile */
(PID.TID 0000.0001)    24 @  0.000000000000000E+00              /* K =  1: 24 */
(PID.TID 0000.0001)     ;
(PID.TID 0000.0001) PTRACERS_EvPrRn =/* tracer conc. in Evap. & Rain */
(PID.TID 0000.0001)                 1.234567000000000E+05
(PID.TID 0000.0001)     ;
(PID.TID 0000.0001)  -----------------------------------
(PID.TID 0000.0001)  tracer number :   19
(PID.TID 0000.0001) PTRACERS_names = /* Tracer short name */
(PID.TID 0000.0001)               'c02'
(PID.TID 0000.0001)     ;
(PID.TID 0000.0001) PTRACERS_long_names = /* Tracer long name */
(PID.TID 0000.0001)               ''
(PID.TID 0000.0001)     ;
(PID.TID 0000.0001) PTRACERS_ioLabel = /* tracer IO Label */
(PID.TID 0000.0001)               '19'
(PID.TID 0000.0001)     ;
(PID.TID 0000.0001) PTRACERS_advScheme = /* Advection Scheme */
(PID.TID 0000.0001)                      33
(PID.TID 0000.0001)     ;
(PID.TID 0000.0001) PTRACERS_SOM_Advection = /* tracer uses SOM advection scheme */
(PID.TID 0000.0001)                   F
(PID.TID 0000.0001)     ;
(PID.TID 0000.0001) PTRACERS_ImplVertAdv = /* implicit vert. advection flag */
(PID.TID 0000.0001)                   F
(PID.TID 0000.0001)     ;
(PID.TID 0000.0001) PTRACERS_diffKh = /* Laplacian Diffusivity */
(PID.TID 0000.0001)                 0.000000000000000E+00
(PID.TID 0000.0001)     ;
(PID.TID 0000.0001) PTRACERS_diffK4 = /* Biharmonic Diffusivity */
(PID.TID 0000.0001)                 0.000000000000000E+00
(PID.TID 0000.0001)     ;
(PID.TID 0000.0001) PTRACERS_diffKrNr = /* Vertical Diffusivity */
(PID.TID 0000.0001)    24 @  1.000000000000000E-06              /* K =  1: 24 */
(PID.TID 0000.0001)     ;
(PID.TID 0000.0001) PTRACERS_useGMRedi = /* apply GM-Redi */
(PID.TID 0000.0001)                   F
(PID.TID 0000.0001)     ;
(PID.TID 0000.0001) PTRACERS_useDWNSLP = /* apply DOWN-SLOPE Flow */
(PID.TID 0000.0001)                   F
(PID.TID 0000.0001)     ;
(PID.TID 0000.0001) PTRACERS_useKPP = /* apply KPP scheme */
(PID.TID 0000.0001)                   T
(PID.TID 0000.0001)     ;
(PID.TID 0000.0001) PTRACERS_ref = /* Reference vertical profile */
(PID.TID 0000.0001)    24 @  0.000000000000000E+00              /* K =  1: 24 */
(PID.TID 0000.0001)     ;
(PID.TID 0000.0001) PTRACERS_EvPrRn =/* tracer conc. in Evap. & Rain */
(PID.TID 0000.0001)                 1.234567000000000E+05
(PID.TID 0000.0001)     ;
(PID.TID 0000.0001)  -----------------------------------
(PID.TID 0000.0001)  tracer number :   20
(PID.TID 0000.0001) PTRACERS_names = /* Tracer short name */
(PID.TID 0000.0001)               'c03'
(PID.TID 0000.0001)     ;
(PID.TID 0000.0001) PTRACERS_long_names = /* Tracer long name */
(PID.TID 0000.0001)               ''
(PID.TID 0000.0001)     ;
(PID.TID 0000.0001) PTRACERS_ioLabel = /* tracer IO Label */
(PID.TID 0000.0001)               '20'
(PID.TID 0000.0001)     ;
(PID.TID 0000.0001) PTRACERS_advScheme = /* Advection Scheme */
(PID.TID 0000.0001)                      33
(PID.TID 0000.0001)     ;
(PID.TID 0000.0001) PTRACERS_SOM_Advection = /* tracer uses SOM advection scheme */
(PID.TID 0000.0001)                   F
(PID.TID 0000.0001)     ;
(PID.TID 0000.0001) PTRACERS_ImplVertAdv = /* implicit vert. advection flag */
(PID.TID 0000.0001)                   F
(PID.TID 0000.0001)     ;
(PID.TID 0000.0001) PTRACERS_diffKh = /* Laplacian Diffusivity */
(PID.TID 0000.0001)                 0.000000000000000E+00
(PID.TID 0000.0001)     ;
(PID.TID 0000.0001) PTRACERS_diffK4 = /* Biharmonic Diffusivity */
(PID.TID 0000.0001)                 0.000000000000000E+00
(PID.TID 0000.0001)     ;
(PID.TID 0000.0001) PTRACERS_diffKrNr = /* Vertical Diffusivity */
(PID.TID 0000.0001)    24 @  1.000000000000000E-06              /* K =  1: 24 */
(PID.TID 0000.0001)     ;
(PID.TID 0000.0001) PTRACERS_useGMRedi = /* apply GM-Redi */
(PID.TID 0000.0001)                   F
(PID.TID 0000.0001)     ;
(PID.TID 0000.0001) PTRACERS_useDWNSLP = /* apply DOWN-SLOPE Flow */
(PID.TID 0000.0001)                   F
(PID.TID 0000.0001)     ;
(PID.TID 0000.0001) PTRACERS_useKPP = /* apply KPP scheme */
(PID.TID 0000.0001)                   T
(PID.TID 0000.0001)     ;
(PID.TID 0000.0001) PTRACERS_ref = /* Reference vertical profile */
(PID.TID 0000.0001)    24 @  0.000000000000000E+00              /* K =  1: 24 */
(PID.TID 0000.0001)     ;
(PID.TID 0000.0001) PTRACERS_EvPrRn =/* tracer conc. in Evap. & Rain */
(PID.TID 0000.0001)                 1.234567000000000E+05
(PID.TID 0000.0001)     ;
(PID.TID 0000.0001)  -----------------------------------
(PID.TID 0000.0001)  tracer number :   21
(PID.TID 0000.0001) PTRACERS_names = /* Tracer short name */
(PID.TID 0000.0001)               'c04'
(PID.TID 0000.0001)     ;
(PID.TID 0000.0001) PTRACERS_long_names = /* Tracer long name */
(PID.TID 0000.0001)               ''
(PID.TID 0000.0001)     ;
(PID.TID 0000.0001) PTRACERS_ioLabel = /* tracer IO Label */
(PID.TID 0000.0001)               '21'
(PID.TID 0000.0001)     ;
(PID.TID 0000.0001) PTRACERS_advScheme = /* Advection Scheme */
(PID.TID 0000.0001)                      33
(PID.TID 0000.0001)     ;
(PID.TID 0000.0001) PTRACERS_SOM_Advection = /* tracer uses SOM advection scheme */
(PID.TID 0000.0001)                   F
(PID.TID 0000.0001)     ;
(PID.TID 0000.0001) PTRACERS_ImplVertAdv = /* implicit vert. advection flag */
(PID.TID 0000.0001)                   F
(PID.TID 0000.0001)     ;
(PID.TID 0000.0001) PTRACERS_diffKh = /* Laplacian Diffusivity */
(PID.TID 0000.0001)                 0.000000000000000E+00
(PID.TID 0000.0001)     ;
(PID.TID 0000.0001) PTRACERS_diffK4 = /* Biharmonic Diffusivity */
(PID.TID 0000.0001)                 0.000000000000000E+00
(PID.TID 0000.0001)     ;
(PID.TID 0000.0001) PTRACERS_diffKrNr = /* Vertical Diffusivity */
(PID.TID 0000.0001)    24 @  1.000000000000000E-06              /* K =  1: 24 */
(PID.TID 0000.0001)     ;
(PID.TID 0000.0001) PTRACERS_useGMRedi = /* apply GM-Redi */
(PID.TID 0000.0001)                   F
(PID.TID 0000.0001)     ;
(PID.TID 0000.0001) PTRACERS_useDWNSLP = /* apply DOWN-SLOPE Flow */
(PID.TID 0000.0001)                   F
(PID.TID 0000.0001)     ;
(PID.TID 0000.0001) PTRACERS_useKPP = /* apply KPP scheme */
(PID.TID 0000.0001)                   T
(PID.TID 0000.0001)     ;
(PID.TID 0000.0001) PTRACERS_ref = /* Reference vertical profile */
(PID.TID 0000.0001)    24 @  0.000000000000000E+00              /* K =  1: 24 */
(PID.TID 0000.0001)     ;
(PID.TID 0000.0001) PTRACERS_EvPrRn =/* tracer conc. in Evap. & Rain */
(PID.TID 0000.0001)                 1.234567000000000E+05
(PID.TID 0000.0001)     ;
(PID.TID 0000.0001)  -----------------------------------
(PID.TID 0000.0001)  tracer number :   22
(PID.TID 0000.0001) PTRACERS_names = /* Tracer short name */
(PID.TID 0000.0001)               'c05'
(PID.TID 0000.0001)     ;
(PID.TID 0000.0001) PTRACERS_long_names = /* Tracer long name */
(PID.TID 0000.0001)               ''
(PID.TID 0000.0001)     ;
(PID.TID 0000.0001) PTRACERS_ioLabel = /* tracer IO Label */
(PID.TID 0000.0001)               '22'
(PID.TID 0000.0001)     ;
(PID.TID 0000.0001) PTRACERS_advScheme = /* Advection Scheme */
(PID.TID 0000.0001)                      33
(PID.TID 0000.0001)     ;
(PID.TID 0000.0001) PTRACERS_SOM_Advection = /* tracer uses SOM advection scheme */
(PID.TID 0000.0001)                   F
(PID.TID 0000.0001)     ;
(PID.TID 0000.0001) PTRACERS_ImplVertAdv = /* implicit vert. advection flag */
(PID.TID 0000.0001)                   F
(PID.TID 0000.0001)     ;
(PID.TID 0000.0001) PTRACERS_diffKh = /* Laplacian Diffusivity */
(PID.TID 0000.0001)                 0.000000000000000E+00
(PID.TID 0000.0001)     ;
(PID.TID 0000.0001) PTRACERS_diffK4 = /* Biharmonic Diffusivity */
(PID.TID 0000.0001)                 0.000000000000000E+00
(PID.TID 0000.0001)     ;
(PID.TID 0000.0001) PTRACERS_diffKrNr = /* Vertical Diffusivity */
(PID.TID 0000.0001)    24 @  1.000000000000000E-06              /* K =  1: 24 */
(PID.TID 0000.0001)     ;
(PID.TID 0000.0001) PTRACERS_useGMRedi = /* apply GM-Redi */
(PID.TID 0000.0001)                   F
(PID.TID 0000.0001)     ;
(PID.TID 0000.0001) PTRACERS_useDWNSLP = /* apply DOWN-SLOPE Flow */
(PID.TID 0000.0001)                   F
(PID.TID 0000.0001)     ;
(PID.TID 0000.0001) PTRACERS_useKPP = /* apply KPP scheme */
(PID.TID 0000.0001)                   T
(PID.TID 0000.0001)     ;
(PID.TID 0000.0001) PTRACERS_ref = /* Reference vertical profile */
(PID.TID 0000.0001)    24 @  0.000000000000000E+00              /* K =  1: 24 */
(PID.TID 0000.0001)     ;
(PID.TID 0000.0001) PTRACERS_EvPrRn =/* tracer conc. in Evap. & Rain */
(PID.TID 0000.0001)                 1.234567000000000E+05
(PID.TID 0000.0001)     ;
(PID.TID 0000.0001)  -----------------------------------
(PID.TID 0000.0001)  tracer number :   23
(PID.TID 0000.0001) PTRACERS_names = /* Tracer short name */
(PID.TID 0000.0001)               'c06'
(PID.TID 0000.0001)     ;
(PID.TID 0000.0001) PTRACERS_long_names = /* Tracer long name */
(PID.TID 0000.0001)               ''
(PID.TID 0000.0001)     ;
(PID.TID 0000.0001) PTRACERS_ioLabel = /* tracer IO Label */
(PID.TID 0000.0001)               '23'
(PID.TID 0000.0001)     ;
(PID.TID 0000.0001) PTRACERS_advScheme = /* Advection Scheme */
(PID.TID 0000.0001)                      33
(PID.TID 0000.0001)     ;
(PID.TID 0000.0001) PTRACERS_SOM_Advection = /* tracer uses SOM advection scheme */
(PID.TID 0000.0001)                   F
(PID.TID 0000.0001)     ;
(PID.TID 0000.0001) PTRACERS_ImplVertAdv = /* implicit vert. advection flag */
(PID.TID 0000.0001)                   F
(PID.TID 0000.0001)     ;
(PID.TID 0000.0001) PTRACERS_diffKh = /* Laplacian Diffusivity */
(PID.TID 0000.0001)                 0.000000000000000E+00
(PID.TID 0000.0001)     ;
(PID.TID 0000.0001) PTRACERS_diffK4 = /* Biharmonic Diffusivity */
(PID.TID 0000.0001)                 0.000000000000000E+00
(PID.TID 0000.0001)     ;
(PID.TID 0000.0001) PTRACERS_diffKrNr = /* Vertical Diffusivity */
(PID.TID 0000.0001)    24 @  1.000000000000000E-06              /* K =  1: 24 */
(PID.TID 0000.0001)     ;
(PID.TID 0000.0001) PTRACERS_useGMRedi = /* apply GM-Redi */
(PID.TID 0000.0001)                   F
(PID.TID 0000.0001)     ;
(PID.TID 0000.0001) PTRACERS_useDWNSLP = /* apply DOWN-SLOPE Flow */
(PID.TID 0000.0001)                   F
(PID.TID 0000.0001)     ;
(PID.TID 0000.0001) PTRACERS_useKPP = /* apply KPP scheme */
(PID.TID 0000.0001)                   T
(PID.TID 0000.0001)     ;
(PID.TID 0000.0001) PTRACERS_ref = /* Reference vertical profile */
(PID.TID 0000.0001)    24 @  0.000000000000000E+00              /* K =  1: 24 */
(PID.TID 0000.0001)     ;
(PID.TID 0000.0001) PTRACERS_EvPrRn =/* tracer conc. in Evap. & Rain */
(PID.TID 0000.0001)                 1.234567000000000E+05
(PID.TID 0000.0001)     ;
(PID.TID 0000.0001)  -----------------------------------
(PID.TID 0000.0001)  tracer number :   24
(PID.TID 0000.0001) PTRACERS_names = /* Tracer short name */
(PID.TID 0000.0001)               'c07'
(PID.TID 0000.0001)     ;
(PID.TID 0000.0001) PTRACERS_long_names = /* Tracer long name */
(PID.TID 0000.0001)               ''
(PID.TID 0000.0001)     ;
(PID.TID 0000.0001) PTRACERS_ioLabel = /* tracer IO Label */
(PID.TID 0000.0001)               '24'
(PID.TID 0000.0001)     ;
(PID.TID 0000.0001) PTRACERS_advScheme = /* Advection Scheme */
(PID.TID 0000.0001)                      33
(PID.TID 0000.0001)     ;
(PID.TID 0000.0001) PTRACERS_SOM_Advection = /* tracer uses SOM advection scheme */
(PID.TID 0000.0001)                   F
(PID.TID 0000.0001)     ;
(PID.TID 0000.0001) PTRACERS_ImplVertAdv = /* implicit vert. advection flag */
(PID.TID 0000.0001)                   F
(PID.TID 0000.0001)     ;
(PID.TID 0000.0001) PTRACERS_diffKh = /* Laplacian Diffusivity */
(PID.TID 0000.0001)                 0.000000000000000E+00
(PID.TID 0000.0001)     ;
(PID.TID 0000.0001) PTRACERS_diffK4 = /* Biharmonic Diffusivity */
(PID.TID 0000.0001)                 0.000000000000000E+00
(PID.TID 0000.0001)     ;
(PID.TID 0000.0001) PTRACERS_diffKrNr = /* Vertical Diffusivity */
(PID.TID 0000.0001)    24 @  1.000000000000000E-06              /* K =  1: 24 */
(PID.TID 0000.0001)     ;
(PID.TID 0000.0001) PTRACERS_useGMRedi = /* apply GM-Redi */
(PID.TID 0000.0001)                   F
(PID.TID 0000.0001)     ;
(PID.TID 0000.0001) PTRACERS_useDWNSLP = /* apply DOWN-SLOPE Flow */
(PID.TID 0000.0001)                   F
(PID.TID 0000.0001)     ;
(PID.TID 0000.0001) PTRACERS_useKPP = /* apply KPP scheme */
(PID.TID 0000.0001)                   T
(PID.TID 0000.0001)     ;
(PID.TID 0000.0001) PTRACERS_ref = /* Reference vertical profile */
(PID.TID 0000.0001)    24 @  0.000000000000000E+00              /* K =  1: 24 */
(PID.TID 0000.0001)     ;
(PID.TID 0000.0001) PTRACERS_EvPrRn =/* tracer conc. in Evap. & Rain */
(PID.TID 0000.0001)                 1.234567000000000E+05
(PID.TID 0000.0001)     ;
(PID.TID 0000.0001)  -----------------------------------
(PID.TID 0000.0001)  tracer number :   25
(PID.TID 0000.0001) PTRACERS_names = /* Tracer short name */
(PID.TID 0000.0001)               'c08'
(PID.TID 0000.0001)     ;
(PID.TID 0000.0001) PTRACERS_long_names = /* Tracer long name */
(PID.TID 0000.0001)               ''
(PID.TID 0000.0001)     ;
(PID.TID 0000.0001) PTRACERS_ioLabel = /* tracer IO Label */
(PID.TID 0000.0001)               '25'
(PID.TID 0000.0001)     ;
(PID.TID 0000.0001) PTRACERS_advScheme = /* Advection Scheme */
(PID.TID 0000.0001)                      33
(PID.TID 0000.0001)     ;
(PID.TID 0000.0001) PTRACERS_SOM_Advection = /* tracer uses SOM advection scheme */
(PID.TID 0000.0001)                   F
(PID.TID 0000.0001)     ;
(PID.TID 0000.0001) PTRACERS_ImplVertAdv = /* implicit vert. advection flag */
(PID.TID 0000.0001)                   F
(PID.TID 0000.0001)     ;
(PID.TID 0000.0001) PTRACERS_diffKh = /* Laplacian Diffusivity */
(PID.TID 0000.0001)                 0.000000000000000E+00
(PID.TID 0000.0001)     ;
(PID.TID 0000.0001) PTRACERS_diffK4 = /* Biharmonic Diffusivity */
(PID.TID 0000.0001)                 0.000000000000000E+00
(PID.TID 0000.0001)     ;
(PID.TID 0000.0001) PTRACERS_diffKrNr = /* Vertical Diffusivity */
(PID.TID 0000.0001)    24 @  1.000000000000000E-06              /* K =  1: 24 */
(PID.TID 0000.0001)     ;
(PID.TID 0000.0001) PTRACERS_useGMRedi = /* apply GM-Redi */
(PID.TID 0000.0001)                   F
(PID.TID 0000.0001)     ;
(PID.TID 0000.0001) PTRACERS_useDWNSLP = /* apply DOWN-SLOPE Flow */
(PID.TID 0000.0001)                   F
(PID.TID 0000.0001)     ;
(PID.TID 0000.0001) PTRACERS_useKPP = /* apply KPP scheme */
(PID.TID 0000.0001)                   T
(PID.TID 0000.0001)     ;
(PID.TID 0000.0001) PTRACERS_ref = /* Reference vertical profile */
(PID.TID 0000.0001)    24 @  0.000000000000000E+00              /* K =  1: 24 */
(PID.TID 0000.0001)     ;
(PID.TID 0000.0001) PTRACERS_EvPrRn =/* tracer conc. in Evap. & Rain */
(PID.TID 0000.0001)                 1.234567000000000E+05
(PID.TID 0000.0001)     ;
(PID.TID 0000.0001)  -----------------------------------
(PID.TID 0000.0001)  tracer number :   26
(PID.TID 0000.0001) PTRACERS_names = /* Tracer short name */
(PID.TID 0000.0001)               'c09'
(PID.TID 0000.0001)     ;
(PID.TID 0000.0001) PTRACERS_long_names = /* Tracer long name */
(PID.TID 0000.0001)               ''
(PID.TID 0000.0001)     ;
(PID.TID 0000.0001) PTRACERS_ioLabel = /* tracer IO Label */
(PID.TID 0000.0001)               '26'
(PID.TID 0000.0001)     ;
(PID.TID 0000.0001) PTRACERS_advScheme = /* Advection Scheme */
(PID.TID 0000.0001)                      33
(PID.TID 0000.0001)     ;
(PID.TID 0000.0001) PTRACERS_SOM_Advection = /* tracer uses SOM advection scheme */
(PID.TID 0000.0001)                   F
(PID.TID 0000.0001)     ;
(PID.TID 0000.0001) PTRACERS_ImplVertAdv = /* implicit vert. advection flag */
(PID.TID 0000.0001)                   F
(PID.TID 0000.0001)     ;
(PID.TID 0000.0001) PTRACERS_diffKh = /* Laplacian Diffusivity */
(PID.TID 0000.0001)                 0.000000000000000E+00
(PID.TID 0000.0001)     ;
(PID.TID 0000.0001) PTRACERS_diffK4 = /* Biharmonic Diffusivity */
(PID.TID 0000.0001)                 0.000000000000000E+00
(PID.TID 0000.0001)     ;
(PID.TID 0000.0001) PTRACERS_diffKrNr = /* Vertical Diffusivity */
(PID.TID 0000.0001)    24 @  1.000000000000000E-06              /* K =  1: 24 */
(PID.TID 0000.0001)     ;
(PID.TID 0000.0001) PTRACERS_useGMRedi = /* apply GM-Redi */
(PID.TID 0000.0001)                   F
(PID.TID 0000.0001)     ;
(PID.TID 0000.0001) PTRACERS_useDWNSLP = /* apply DOWN-SLOPE Flow */
(PID.TID 0000.0001)                   F
(PID.TID 0000.0001)     ;
(PID.TID 0000.0001) PTRACERS_useKPP = /* apply KPP scheme */
(PID.TID 0000.0001)                   T
(PID.TID 0000.0001)     ;
(PID.TID 0000.0001) PTRACERS_ref = /* Reference vertical profile */
(PID.TID 0000.0001)    24 @  0.000000000000000E+00              /* K =  1: 24 */
(PID.TID 0000.0001)     ;
(PID.TID 0000.0001) PTRACERS_EvPrRn =/* tracer conc. in Evap. & Rain */
(PID.TID 0000.0001)                 1.234567000000000E+05
(PID.TID 0000.0001)     ;
(PID.TID 0000.0001)  -----------------------------------
(PID.TID 0000.0001)  tracer number :   27
(PID.TID 0000.0001) PTRACERS_names = /* Tracer short name */
(PID.TID 0000.0001)               'c10'
(PID.TID 0000.0001)     ;
(PID.TID 0000.0001) PTRACERS_long_names = /* Tracer long name */
(PID.TID 0000.0001)               ''
(PID.TID 0000.0001)     ;
(PID.TID 0000.0001) PTRACERS_ioLabel = /* tracer IO Label */
(PID.TID 0000.0001)               '27'
(PID.TID 0000.0001)     ;
(PID.TID 0000.0001) PTRACERS_advScheme = /* Advection Scheme */
(PID.TID 0000.0001)                      33
(PID.TID 0000.0001)     ;
(PID.TID 0000.0001) PTRACERS_SOM_Advection = /* tracer uses SOM advection scheme */
(PID.TID 0000.0001)                   F
(PID.TID 0000.0001)     ;
(PID.TID 0000.0001) PTRACERS_ImplVertAdv = /* implicit vert. advection flag */
(PID.TID 0000.0001)                   F
(PID.TID 0000.0001)     ;
(PID.TID 0000.0001) PTRACERS_diffKh = /* Laplacian Diffusivity */
(PID.TID 0000.0001)                 0.000000000000000E+00
(PID.TID 0000.0001)     ;
(PID.TID 0000.0001) PTRACERS_diffK4 = /* Biharmonic Diffusivity */
(PID.TID 0000.0001)                 0.000000000000000E+00
(PID.TID 0000.0001)     ;
(PID.TID 0000.0001) PTRACERS_diffKrNr = /* Vertical Diffusivity */
(PID.TID 0000.0001)    24 @  1.000000000000000E-06              /* K =  1: 24 */
(PID.TID 0000.0001)     ;
(PID.TID 0000.0001) PTRACERS_useGMRedi = /* apply GM-Redi */
(PID.TID 0000.0001)                   F
(PID.TID 0000.0001)     ;
(PID.TID 0000.0001) PTRACERS_useDWNSLP = /* apply DOWN-SLOPE Flow */
(PID.TID 0000.0001)                   F
(PID.TID 0000.0001)     ;
(PID.TID 0000.0001) PTRACERS_useKPP = /* apply KPP scheme */
(PID.TID 0000.0001)                   T
(PID.TID 0000.0001)     ;
(PID.TID 0000.0001) PTRACERS_ref = /* Reference vertical profile */
(PID.TID 0000.0001)    24 @  0.000000000000000E+00              /* K =  1: 24 */
(PID.TID 0000.0001)     ;
(PID.TID 0000.0001) PTRACERS_EvPrRn =/* tracer conc. in Evap. & Rain */
(PID.TID 0000.0001)                 1.234567000000000E+05
(PID.TID 0000.0001)     ;
(PID.TID 0000.0001)  -----------------------------------
(PID.TID 0000.0001)  tracer number :   28
(PID.TID 0000.0001) PTRACERS_names = /* Tracer short name */
(PID.TID 0000.0001)               'c11'
(PID.TID 0000.0001)     ;
(PID.TID 0000.0001) PTRACERS_long_names = /* Tracer long name */
(PID.TID 0000.0001)               ''
(PID.TID 0000.0001)     ;
(PID.TID 0000.0001) PTRACERS_ioLabel = /* tracer IO Label */
(PID.TID 0000.0001)               '28'
(PID.TID 0000.0001)     ;
(PID.TID 0000.0001) PTRACERS_advScheme = /* Advection Scheme */
(PID.TID 0000.0001)                      33
(PID.TID 0000.0001)     ;
(PID.TID 0000.0001) PTRACERS_SOM_Advection = /* tracer uses SOM advection scheme */
(PID.TID 0000.0001)                   F
(PID.TID 0000.0001)     ;
(PID.TID 0000.0001) PTRACERS_ImplVertAdv = /* implicit vert. advection flag */
(PID.TID 0000.0001)                   F
(PID.TID 0000.0001)     ;
(PID.TID 0000.0001) PTRACERS_diffKh = /* Laplacian Diffusivity */
(PID.TID 0000.0001)                 0.000000000000000E+00
(PID.TID 0000.0001)     ;
(PID.TID 0000.0001) PTRACERS_diffK4 = /* Biharmonic Diffusivity */
(PID.TID 0000.0001)                 0.000000000000000E+00
(PID.TID 0000.0001)     ;
(PID.TID 0000.0001) PTRACERS_diffKrNr = /* Vertical Diffusivity */
(PID.TID 0000.0001)    24 @  1.000000000000000E-06              /* K =  1: 24 */
(PID.TID 0000.0001)     ;
(PID.TID 0000.0001) PTRACERS_useGMRedi = /* apply GM-Redi */
(PID.TID 0000.0001)                   F
(PID.TID 0000.0001)     ;
(PID.TID 0000.0001) PTRACERS_useDWNSLP = /* apply DOWN-SLOPE Flow */
(PID.TID 0000.0001)                   F
(PID.TID 0000.0001)     ;
(PID.TID 0000.0001) PTRACERS_useKPP = /* apply KPP scheme */
(PID.TID 0000.0001)                   T
(PID.TID 0000.0001)     ;
(PID.TID 0000.0001) PTRACERS_ref = /* Reference vertical profile */
(PID.TID 0000.0001)    24 @  0.000000000000000E+00              /* K =  1: 24 */
(PID.TID 0000.0001)     ;
(PID.TID 0000.0001) PTRACERS_EvPrRn =/* tracer conc. in Evap. & Rain */
(PID.TID 0000.0001)                 1.234567000000000E+05
(PID.TID 0000.0001)     ;
(PID.TID 0000.0001)  -----------------------------------
(PID.TID 0000.0001)  tracer number :   29
(PID.TID 0000.0001) PTRACERS_names = /* Tracer short name */
(PID.TID 0000.0001)               'c12'
(PID.TID 0000.0001)     ;
(PID.TID 0000.0001) PTRACERS_long_names = /* Tracer long name */
(PID.TID 0000.0001)               ''
(PID.TID 0000.0001)     ;
(PID.TID 0000.0001) PTRACERS_ioLabel = /* tracer IO Label */
(PID.TID 0000.0001)               '29'
(PID.TID 0000.0001)     ;
(PID.TID 0000.0001) PTRACERS_advScheme = /* Advection Scheme */
(PID.TID 0000.0001)                      33
(PID.TID 0000.0001)     ;
(PID.TID 0000.0001) PTRACERS_SOM_Advection = /* tracer uses SOM advection scheme */
(PID.TID 0000.0001)                   F
(PID.TID 0000.0001)     ;
(PID.TID 0000.0001) PTRACERS_ImplVertAdv = /* implicit vert. advection flag */
(PID.TID 0000.0001)                   F
(PID.TID 0000.0001)     ;
(PID.TID 0000.0001) PTRACERS_diffKh = /* Laplacian Diffusivity */
(PID.TID 0000.0001)                 0.000000000000000E+00
(PID.TID 0000.0001)     ;
(PID.TID 0000.0001) PTRACERS_diffK4 = /* Biharmonic Diffusivity */
(PID.TID 0000.0001)                 0.000000000000000E+00
(PID.TID 0000.0001)     ;
(PID.TID 0000.0001) PTRACERS_diffKrNr = /* Vertical Diffusivity */
(PID.TID 0000.0001)    24 @  1.000000000000000E-06              /* K =  1: 24 */
(PID.TID 0000.0001)     ;
(PID.TID 0000.0001) PTRACERS_useGMRedi = /* apply GM-Redi */
(PID.TID 0000.0001)                   F
(PID.TID 0000.0001)     ;
(PID.TID 0000.0001) PTRACERS_useDWNSLP = /* apply DOWN-SLOPE Flow */
(PID.TID 0000.0001)                   F
(PID.TID 0000.0001)     ;
(PID.TID 0000.0001) PTRACERS_useKPP = /* apply KPP scheme */
(PID.TID 0000.0001)                   T
(PID.TID 0000.0001)     ;
(PID.TID 0000.0001) PTRACERS_ref = /* Reference vertical profile */
(PID.TID 0000.0001)    24 @  0.000000000000000E+00              /* K =  1: 24 */
(PID.TID 0000.0001)     ;
(PID.TID 0000.0001) PTRACERS_EvPrRn =/* tracer conc. in Evap. & Rain */
(PID.TID 0000.0001)                 1.234567000000000E+05
(PID.TID 0000.0001)     ;
(PID.TID 0000.0001)  -----------------------------------
(PID.TID 0000.0001)  tracer number :   30
(PID.TID 0000.0001) PTRACERS_names = /* Tracer short name */
(PID.TID 0000.0001)               'c13'
(PID.TID 0000.0001)     ;
(PID.TID 0000.0001) PTRACERS_long_names = /* Tracer long name */
(PID.TID 0000.0001)               ''
(PID.TID 0000.0001)     ;
(PID.TID 0000.0001) PTRACERS_ioLabel = /* tracer IO Label */
(PID.TID 0000.0001)               '30'
(PID.TID 0000.0001)     ;
(PID.TID 0000.0001) PTRACERS_advScheme = /* Advection Scheme */
(PID.TID 0000.0001)                      33
(PID.TID 0000.0001)     ;
(PID.TID 0000.0001) PTRACERS_SOM_Advection = /* tracer uses SOM advection scheme */
(PID.TID 0000.0001)                   F
(PID.TID 0000.0001)     ;
(PID.TID 0000.0001) PTRACERS_ImplVertAdv = /* implicit vert. advection flag */
(PID.TID 0000.0001)                   F
(PID.TID 0000.0001)     ;
(PID.TID 0000.0001) PTRACERS_diffKh = /* Laplacian Diffusivity */
(PID.TID 0000.0001)                 0.000000000000000E+00
(PID.TID 0000.0001)     ;
(PID.TID 0000.0001) PTRACERS_diffK4 = /* Biharmonic Diffusivity */
(PID.TID 0000.0001)                 0.000000000000000E+00
(PID.TID 0000.0001)     ;
(PID.TID 0000.0001) PTRACERS_diffKrNr = /* Vertical Diffusivity */
(PID.TID 0000.0001)    24 @  1.000000000000000E-06              /* K =  1: 24 */
(PID.TID 0000.0001)     ;
(PID.TID 0000.0001) PTRACERS_useGMRedi = /* apply GM-Redi */
(PID.TID 0000.0001)                   F
(PID.TID 0000.0001)     ;
(PID.TID 0000.0001) PTRACERS_useDWNSLP = /* apply DOWN-SLOPE Flow */
(PID.TID 0000.0001)                   F
(PID.TID 0000.0001)     ;
(PID.TID 0000.0001) PTRACERS_useKPP = /* apply KPP scheme */
(PID.TID 0000.0001)                   T
(PID.TID 0000.0001)     ;
(PID.TID 0000.0001) PTRACERS_ref = /* Reference vertical profile */
(PID.TID 0000.0001)    24 @  0.000000000000000E+00              /* K =  1: 24 */
(PID.TID 0000.0001)     ;
(PID.TID 0000.0001) PTRACERS_EvPrRn =/* tracer conc. in Evap. & Rain */
(PID.TID 0000.0001)                 1.234567000000000E+05
(PID.TID 0000.0001)     ;
(PID.TID 0000.0001)  -----------------------------------
(PID.TID 0000.0001)  tracer number :   31
(PID.TID 0000.0001) PTRACERS_names = /* Tracer short name */
(PID.TID 0000.0001)               'c14'
(PID.TID 0000.0001)     ;
(PID.TID 0000.0001) PTRACERS_long_names = /* Tracer long name */
(PID.TID 0000.0001)               ''
(PID.TID 0000.0001)     ;
(PID.TID 0000.0001) PTRACERS_ioLabel = /* tracer IO Label */
(PID.TID 0000.0001)               '31'
(PID.TID 0000.0001)     ;
(PID.TID 0000.0001) PTRACERS_advScheme = /* Advection Scheme */
(PID.TID 0000.0001)                      33
(PID.TID 0000.0001)     ;
(PID.TID 0000.0001) PTRACERS_SOM_Advection = /* tracer uses SOM advection scheme */
(PID.TID 0000.0001)                   F
(PID.TID 0000.0001)     ;
(PID.TID 0000.0001) PTRACERS_ImplVertAdv = /* implicit vert. advection flag */
(PID.TID 0000.0001)                   F
(PID.TID 0000.0001)     ;
(PID.TID 0000.0001) PTRACERS_diffKh = /* Laplacian Diffusivity */
(PID.TID 0000.0001)                 0.000000000000000E+00
(PID.TID 0000.0001)     ;
(PID.TID 0000.0001) PTRACERS_diffK4 = /* Biharmonic Diffusivity */
(PID.TID 0000.0001)                 0.000000000000000E+00
(PID.TID 0000.0001)     ;
(PID.TID 0000.0001) PTRACERS_diffKrNr = /* Vertical Diffusivity */
(PID.TID 0000.0001)    24 @  1.000000000000000E-06              /* K =  1: 24 */
(PID.TID 0000.0001)     ;
(PID.TID 0000.0001) PTRACERS_useGMRedi = /* apply GM-Redi */
(PID.TID 0000.0001)                   F
(PID.TID 0000.0001)     ;
(PID.TID 0000.0001) PTRACERS_useDWNSLP = /* apply DOWN-SLOPE Flow */
(PID.TID 0000.0001)                   F
(PID.TID 0000.0001)     ;
(PID.TID 0000.0001) PTRACERS_useKPP = /* apply KPP scheme */
(PID.TID 0000.0001)                   T
(PID.TID 0000.0001)     ;
(PID.TID 0000.0001) PTRACERS_ref = /* Reference vertical profile */
(PID.TID 0000.0001)    24 @  0.000000000000000E+00              /* K =  1: 24 */
(PID.TID 0000.0001)     ;
(PID.TID 0000.0001) PTRACERS_EvPrRn =/* tracer conc. in Evap. & Rain */
(PID.TID 0000.0001)                 1.234567000000000E+05
(PID.TID 0000.0001)     ;
(PID.TID 0000.0001)  -----------------------------------
(PID.TID 0000.0001)  tracer number :   32
(PID.TID 0000.0001) PTRACERS_names = /* Tracer short name */
(PID.TID 0000.0001)               'c15'
(PID.TID 0000.0001)     ;
(PID.TID 0000.0001) PTRACERS_long_names = /* Tracer long name */
(PID.TID 0000.0001)               ''
(PID.TID 0000.0001)     ;
(PID.TID 0000.0001) PTRACERS_ioLabel = /* tracer IO Label */
(PID.TID 0000.0001)               '32'
(PID.TID 0000.0001)     ;
(PID.TID 0000.0001) PTRACERS_advScheme = /* Advection Scheme */
(PID.TID 0000.0001)                      33
(PID.TID 0000.0001)     ;
(PID.TID 0000.0001) PTRACERS_SOM_Advection = /* tracer uses SOM advection scheme */
(PID.TID 0000.0001)                   F
(PID.TID 0000.0001)     ;
(PID.TID 0000.0001) PTRACERS_ImplVertAdv = /* implicit vert. advection flag */
(PID.TID 0000.0001)                   F
(PID.TID 0000.0001)     ;
(PID.TID 0000.0001) PTRACERS_diffKh = /* Laplacian Diffusivity */
(PID.TID 0000.0001)                 0.000000000000000E+00
(PID.TID 0000.0001)     ;
(PID.TID 0000.0001) PTRACERS_diffK4 = /* Biharmonic Diffusivity */
(PID.TID 0000.0001)                 0.000000000000000E+00
(PID.TID 0000.0001)     ;
(PID.TID 0000.0001) PTRACERS_diffKrNr = /* Vertical Diffusivity */
(PID.TID 0000.0001)    24 @  1.000000000000000E-06              /* K =  1: 24 */
(PID.TID 0000.0001)     ;
(PID.TID 0000.0001) PTRACERS_useGMRedi = /* apply GM-Redi */
(PID.TID 0000.0001)                   F
(PID.TID 0000.0001)     ;
(PID.TID 0000.0001) PTRACERS_useDWNSLP = /* apply DOWN-SLOPE Flow */
(PID.TID 0000.0001)                   F
(PID.TID 0000.0001)     ;
(PID.TID 0000.0001) PTRACERS_useKPP = /* apply KPP scheme */
(PID.TID 0000.0001)                   T
(PID.TID 0000.0001)     ;
(PID.TID 0000.0001) PTRACERS_ref = /* Reference vertical profile */
(PID.TID 0000.0001)    24 @  0.000000000000000E+00              /* K =  1: 24 */
(PID.TID 0000.0001)     ;
(PID.TID 0000.0001) PTRACERS_EvPrRn =/* tracer conc. in Evap. & Rain */
(PID.TID 0000.0001)                 1.234567000000000E+05
(PID.TID 0000.0001)     ;
(PID.TID 0000.0001)  -----------------------------------
(PID.TID 0000.0001)  tracer number :   33
(PID.TID 0000.0001) PTRACERS_names = /* Tracer short name */
(PID.TID 0000.0001)               'c16'
(PID.TID 0000.0001)     ;
(PID.TID 0000.0001) PTRACERS_long_names = /* Tracer long name */
(PID.TID 0000.0001)               ''
(PID.TID 0000.0001)     ;
(PID.TID 0000.0001) PTRACERS_ioLabel = /* tracer IO Label */
(PID.TID 0000.0001)               '33'
(PID.TID 0000.0001)     ;
(PID.TID 0000.0001) PTRACERS_advScheme = /* Advection Scheme */
(PID.TID 0000.0001)                      33
(PID.TID 0000.0001)     ;
(PID.TID 0000.0001) PTRACERS_SOM_Advection = /* tracer uses SOM advection scheme */
(PID.TID 0000.0001)                   F
(PID.TID 0000.0001)     ;
(PID.TID 0000.0001) PTRACERS_ImplVertAdv = /* implicit vert. advection flag */
(PID.TID 0000.0001)                   F
(PID.TID 0000.0001)     ;
(PID.TID 0000.0001) PTRACERS_diffKh = /* Laplacian Diffusivity */
(PID.TID 0000.0001)                 0.000000000000000E+00
(PID.TID 0000.0001)     ;
(PID.TID 0000.0001) PTRACERS_diffK4 = /* Biharmonic Diffusivity */
(PID.TID 0000.0001)                 0.000000000000000E+00
(PID.TID 0000.0001)     ;
(PID.TID 0000.0001) PTRACERS_diffKrNr = /* Vertical Diffusivity */
(PID.TID 0000.0001)    24 @  1.000000000000000E-06              /* K =  1: 24 */
(PID.TID 0000.0001)     ;
(PID.TID 0000.0001) PTRACERS_useGMRedi = /* apply GM-Redi */
(PID.TID 0000.0001)                   F
(PID.TID 0000.0001)     ;
(PID.TID 0000.0001) PTRACERS_useDWNSLP = /* apply DOWN-SLOPE Flow */
(PID.TID 0000.0001)                   F
(PID.TID 0000.0001)     ;
(PID.TID 0000.0001) PTRACERS_useKPP = /* apply KPP scheme */
(PID.TID 0000.0001)                   T
(PID.TID 0000.0001)     ;
(PID.TID 0000.0001) PTRACERS_ref = /* Reference vertical profile */
(PID.TID 0000.0001)    24 @  0.000000000000000E+00              /* K =  1: 24 */
(PID.TID 0000.0001)     ;
(PID.TID 0000.0001) PTRACERS_EvPrRn =/* tracer conc. in Evap. & Rain */
(PID.TID 0000.0001)                 1.234567000000000E+05
(PID.TID 0000.0001)     ;
(PID.TID 0000.0001)  -----------------------------------
(PID.TID 0000.0001)  tracer number :   34
(PID.TID 0000.0001) PTRACERS_names = /* Tracer short name */
(PID.TID 0000.0001)               'c17'
(PID.TID 0000.0001)     ;
(PID.TID 0000.0001) PTRACERS_long_names = /* Tracer long name */
(PID.TID 0000.0001)               ''
(PID.TID 0000.0001)     ;
(PID.TID 0000.0001) PTRACERS_ioLabel = /* tracer IO Label */
(PID.TID 0000.0001)               '34'
(PID.TID 0000.0001)     ;
(PID.TID 0000.0001) PTRACERS_advScheme = /* Advection Scheme */
(PID.TID 0000.0001)                      33
(PID.TID 0000.0001)     ;
(PID.TID 0000.0001) PTRACERS_SOM_Advection = /* tracer uses SOM advection scheme */
(PID.TID 0000.0001)                   F
(PID.TID 0000.0001)     ;
(PID.TID 0000.0001) PTRACERS_ImplVertAdv = /* implicit vert. advection flag */
(PID.TID 0000.0001)                   F
(PID.TID 0000.0001)     ;
(PID.TID 0000.0001) PTRACERS_diffKh = /* Laplacian Diffusivity */
(PID.TID 0000.0001)                 0.000000000000000E+00
(PID.TID 0000.0001)     ;
(PID.TID 0000.0001) PTRACERS_diffK4 = /* Biharmonic Diffusivity */
(PID.TID 0000.0001)                 0.000000000000000E+00
(PID.TID 0000.0001)     ;
(PID.TID 0000.0001) PTRACERS_diffKrNr = /* Vertical Diffusivity */
(PID.TID 0000.0001)    24 @  1.000000000000000E-06              /* K =  1: 24 */
(PID.TID 0000.0001)     ;
(PID.TID 0000.0001) PTRACERS_useGMRedi = /* apply GM-Redi */
(PID.TID 0000.0001)                   F
(PID.TID 0000.0001)     ;
(PID.TID 0000.0001) PTRACERS_useDWNSLP = /* apply DOWN-SLOPE Flow */
(PID.TID 0000.0001)                   F
(PID.TID 0000.0001)     ;
(PID.TID 0000.0001) PTRACERS_useKPP = /* apply KPP scheme */
(PID.TID 0000.0001)                   T
(PID.TID 0000.0001)     ;
(PID.TID 0000.0001) PTRACERS_ref = /* Reference vertical profile */
(PID.TID 0000.0001)    24 @  0.000000000000000E+00              /* K =  1: 24 */
(PID.TID 0000.0001)     ;
(PID.TID 0000.0001) PTRACERS_EvPrRn =/* tracer conc. in Evap. & Rain */
(PID.TID 0000.0001)                 1.234567000000000E+05
(PID.TID 0000.0001)     ;
(PID.TID 0000.0001)  -----------------------------------
(PID.TID 0000.0001)  tracer number :   35
(PID.TID 0000.0001) PTRACERS_names = /* Tracer short name */
(PID.TID 0000.0001)               'c18'
(PID.TID 0000.0001)     ;
(PID.TID 0000.0001) PTRACERS_long_names = /* Tracer long name */
(PID.TID 0000.0001)               ''
(PID.TID 0000.0001)     ;
(PID.TID 0000.0001) PTRACERS_ioLabel = /* tracer IO Label */
(PID.TID 0000.0001)               '35'
(PID.TID 0000.0001)     ;
(PID.TID 0000.0001) PTRACERS_advScheme = /* Advection Scheme */
(PID.TID 0000.0001)                      33
(PID.TID 0000.0001)     ;
(PID.TID 0000.0001) PTRACERS_SOM_Advection = /* tracer uses SOM advection scheme */
(PID.TID 0000.0001)                   F
(PID.TID 0000.0001)     ;
(PID.TID 0000.0001) PTRACERS_ImplVertAdv = /* implicit vert. advection flag */
(PID.TID 0000.0001)                   F
(PID.TID 0000.0001)     ;
(PID.TID 0000.0001) PTRACERS_diffKh = /* Laplacian Diffusivity */
(PID.TID 0000.0001)                 0.000000000000000E+00
(PID.TID 0000.0001)     ;
(PID.TID 0000.0001) PTRACERS_diffK4 = /* Biharmonic Diffusivity */
(PID.TID 0000.0001)                 0.000000000000000E+00
(PID.TID 0000.0001)     ;
(PID.TID 0000.0001) PTRACERS_diffKrNr = /* Vertical Diffusivity */
(PID.TID 0000.0001)    24 @  1.000000000000000E-06              /* K =  1: 24 */
(PID.TID 0000.0001)     ;
(PID.TID 0000.0001) PTRACERS_useGMRedi = /* apply GM-Redi */
(PID.TID 0000.0001)                   F
(PID.TID 0000.0001)     ;
(PID.TID 0000.0001) PTRACERS_useDWNSLP = /* apply DOWN-SLOPE Flow */
(PID.TID 0000.0001)                   F
(PID.TID 0000.0001)     ;
(PID.TID 0000.0001) PTRACERS_useKPP = /* apply KPP scheme */
(PID.TID 0000.0001)                   T
(PID.TID 0000.0001)     ;
(PID.TID 0000.0001) PTRACERS_ref = /* Reference vertical profile */
(PID.TID 0000.0001)    24 @  0.000000000000000E+00              /* K =  1: 24 */
(PID.TID 0000.0001)     ;
(PID.TID 0000.0001) PTRACERS_EvPrRn =/* tracer conc. in Evap. & Rain */
(PID.TID 0000.0001)                 1.234567000000000E+05
(PID.TID 0000.0001)     ;
(PID.TID 0000.0001)  -----------------------------------
(PID.TID 0000.0001)  tracer number :   36
(PID.TID 0000.0001) PTRACERS_names = /* Tracer short name */
(PID.TID 0000.0001)               'c19'
(PID.TID 0000.0001)     ;
(PID.TID 0000.0001) PTRACERS_long_names = /* Tracer long name */
(PID.TID 0000.0001)               ''
(PID.TID 0000.0001)     ;
(PID.TID 0000.0001) PTRACERS_ioLabel = /* tracer IO Label */
(PID.TID 0000.0001)               '36'
(PID.TID 0000.0001)     ;
(PID.TID 0000.0001) PTRACERS_advScheme = /* Advection Scheme */
(PID.TID 0000.0001)                      33
(PID.TID 0000.0001)     ;
(PID.TID 0000.0001) PTRACERS_SOM_Advection = /* tracer uses SOM advection scheme */
(PID.TID 0000.0001)                   F
(PID.TID 0000.0001)     ;
(PID.TID 0000.0001) PTRACERS_ImplVertAdv = /* implicit vert. advection flag */
(PID.TID 0000.0001)                   F
(PID.TID 0000.0001)     ;
(PID.TID 0000.0001) PTRACERS_diffKh = /* Laplacian Diffusivity */
(PID.TID 0000.0001)                 0.000000000000000E+00
(PID.TID 0000.0001)     ;
(PID.TID 0000.0001) PTRACERS_diffK4 = /* Biharmonic Diffusivity */
(PID.TID 0000.0001)                 0.000000000000000E+00
(PID.TID 0000.0001)     ;
(PID.TID 0000.0001) PTRACERS_diffKrNr = /* Vertical Diffusivity */
(PID.TID 0000.0001)    24 @  1.000000000000000E-06              /* K =  1: 24 */
(PID.TID 0000.0001)     ;
(PID.TID 0000.0001) PTRACERS_useGMRedi = /* apply GM-Redi */
(PID.TID 0000.0001)                   F
(PID.TID 0000.0001)     ;
(PID.TID 0000.0001) PTRACERS_useDWNSLP = /* apply DOWN-SLOPE Flow */
(PID.TID 0000.0001)                   F
(PID.TID 0000.0001)     ;
(PID.TID 0000.0001) PTRACERS_useKPP = /* apply KPP scheme */
(PID.TID 0000.0001)                   T
(PID.TID 0000.0001)     ;
(PID.TID 0000.0001) PTRACERS_ref = /* Reference vertical profile */
(PID.TID 0000.0001)    24 @  0.000000000000000E+00              /* K =  1: 24 */
(PID.TID 0000.0001)     ;
(PID.TID 0000.0001) PTRACERS_EvPrRn =/* tracer conc. in Evap. & Rain */
(PID.TID 0000.0001)                 1.234567000000000E+05
(PID.TID 0000.0001)     ;
(PID.TID 0000.0001)  -----------------------------------
(PID.TID 0000.0001)  tracer number :   37
(PID.TID 0000.0001) PTRACERS_names = /* Tracer short name */
(PID.TID 0000.0001)               'c20'
(PID.TID 0000.0001)     ;
(PID.TID 0000.0001) PTRACERS_long_names = /* Tracer long name */
(PID.TID 0000.0001)               ''
(PID.TID 0000.0001)     ;
(PID.TID 0000.0001) PTRACERS_ioLabel = /* tracer IO Label */
(PID.TID 0000.0001)               '37'
(PID.TID 0000.0001)     ;
(PID.TID 0000.0001) PTRACERS_advScheme = /* Advection Scheme */
(PID.TID 0000.0001)                      33
(PID.TID 0000.0001)     ;
(PID.TID 0000.0001) PTRACERS_SOM_Advection = /* tracer uses SOM advection scheme */
(PID.TID 0000.0001)                   F
(PID.TID 0000.0001)     ;
(PID.TID 0000.0001) PTRACERS_ImplVertAdv = /* implicit vert. advection flag */
(PID.TID 0000.0001)                   F
(PID.TID 0000.0001)     ;
(PID.TID 0000.0001) PTRACERS_diffKh = /* Laplacian Diffusivity */
(PID.TID 0000.0001)                 0.000000000000000E+00
(PID.TID 0000.0001)     ;
(PID.TID 0000.0001) PTRACERS_diffK4 = /* Biharmonic Diffusivity */
(PID.TID 0000.0001)                 0.000000000000000E+00
(PID.TID 0000.0001)     ;
(PID.TID 0000.0001) PTRACERS_diffKrNr = /* Vertical Diffusivity */
(PID.TID 0000.0001)    24 @  1.000000000000000E-06              /* K =  1: 24 */
(PID.TID 0000.0001)     ;
(PID.TID 0000.0001) PTRACERS_useGMRedi = /* apply GM-Redi */
(PID.TID 0000.0001)                   F
(PID.TID 0000.0001)     ;
(PID.TID 0000.0001) PTRACERS_useDWNSLP = /* apply DOWN-SLOPE Flow */
(PID.TID 0000.0001)                   F
(PID.TID 0000.0001)     ;
(PID.TID 0000.0001) PTRACERS_useKPP = /* apply KPP scheme */
(PID.TID 0000.0001)                   T
(PID.TID 0000.0001)     ;
(PID.TID 0000.0001) PTRACERS_ref = /* Reference vertical profile */
(PID.TID 0000.0001)    24 @  0.000000000000000E+00              /* K =  1: 24 */
(PID.TID 0000.0001)     ;
(PID.TID 0000.0001) PTRACERS_EvPrRn =/* tracer conc. in Evap. & Rain */
(PID.TID 0000.0001)                 1.234567000000000E+05
(PID.TID 0000.0001)     ;
(PID.TID 0000.0001)  -----------------------------------
(PID.TID 0000.0001)  tracer number :   38
(PID.TID 0000.0001) PTRACERS_names = /* Tracer short name */
(PID.TID 0000.0001)               'c21'
(PID.TID 0000.0001)     ;
(PID.TID 0000.0001) PTRACERS_long_names = /* Tracer long name */
(PID.TID 0000.0001)               ''
(PID.TID 0000.0001)     ;
(PID.TID 0000.0001) PTRACERS_ioLabel = /* tracer IO Label */
(PID.TID 0000.0001)               '38'
(PID.TID 0000.0001)     ;
(PID.TID 0000.0001) PTRACERS_advScheme = /* Advection Scheme */
(PID.TID 0000.0001)                      33
(PID.TID 0000.0001)     ;
(PID.TID 0000.0001) PTRACERS_SOM_Advection = /* tracer uses SOM advection scheme */
(PID.TID 0000.0001)                   F
(PID.TID 0000.0001)     ;
(PID.TID 0000.0001) PTRACERS_ImplVertAdv = /* implicit vert. advection flag */
(PID.TID 0000.0001)                   F
(PID.TID 0000.0001)     ;
(PID.TID 0000.0001) PTRACERS_diffKh = /* Laplacian Diffusivity */
(PID.TID 0000.0001)                 0.000000000000000E+00
(PID.TID 0000.0001)     ;
(PID.TID 0000.0001) PTRACERS_diffK4 = /* Biharmonic Diffusivity */
(PID.TID 0000.0001)                 0.000000000000000E+00
(PID.TID 0000.0001)     ;
(PID.TID 0000.0001) PTRACERS_diffKrNr = /* Vertical Diffusivity */
(PID.TID 0000.0001)    24 @  1.000000000000000E-06              /* K =  1: 24 */
(PID.TID 0000.0001)     ;
(PID.TID 0000.0001) PTRACERS_useGMRedi = /* apply GM-Redi */
(PID.TID 0000.0001)                   F
(PID.TID 0000.0001)     ;
(PID.TID 0000.0001) PTRACERS_useDWNSLP = /* apply DOWN-SLOPE Flow */
(PID.TID 0000.0001)                   F
(PID.TID 0000.0001)     ;
(PID.TID 0000.0001) PTRACERS_useKPP = /* apply KPP scheme */
(PID.TID 0000.0001)                   T
(PID.TID 0000.0001)     ;
(PID.TID 0000.0001) PTRACERS_ref = /* Reference vertical profile */
(PID.TID 0000.0001)    24 @  0.000000000000000E+00              /* K =  1: 24 */
(PID.TID 0000.0001)     ;
(PID.TID 0000.0001) PTRACERS_EvPrRn =/* tracer conc. in Evap. & Rain */
(PID.TID 0000.0001)                 1.234567000000000E+05
(PID.TID 0000.0001)     ;
(PID.TID 0000.0001)  -----------------------------------
(PID.TID 0000.0001)  tracer number :   39
(PID.TID 0000.0001) PTRACERS_names = /* Tracer short name */
(PID.TID 0000.0001)               'c22'
(PID.TID 0000.0001)     ;
(PID.TID 0000.0001) PTRACERS_long_names = /* Tracer long name */
(PID.TID 0000.0001)               ''
(PID.TID 0000.0001)     ;
(PID.TID 0000.0001) PTRACERS_ioLabel = /* tracer IO Label */
(PID.TID 0000.0001)               '39'
(PID.TID 0000.0001)     ;
(PID.TID 0000.0001) PTRACERS_advScheme = /* Advection Scheme */
(PID.TID 0000.0001)                      33
(PID.TID 0000.0001)     ;
(PID.TID 0000.0001) PTRACERS_SOM_Advection = /* tracer uses SOM advection scheme */
(PID.TID 0000.0001)                   F
(PID.TID 0000.0001)     ;
(PID.TID 0000.0001) PTRACERS_ImplVertAdv = /* implicit vert. advection flag */
(PID.TID 0000.0001)                   F
(PID.TID 0000.0001)     ;
(PID.TID 0000.0001) PTRACERS_diffKh = /* Laplacian Diffusivity */
(PID.TID 0000.0001)                 0.000000000000000E+00
(PID.TID 0000.0001)     ;
(PID.TID 0000.0001) PTRACERS_diffK4 = /* Biharmonic Diffusivity */
(PID.TID 0000.0001)                 0.000000000000000E+00
(PID.TID 0000.0001)     ;
(PID.TID 0000.0001) PTRACERS_diffKrNr = /* Vertical Diffusivity */
(PID.TID 0000.0001)    24 @  1.000000000000000E-06              /* K =  1: 24 */
(PID.TID 0000.0001)     ;
(PID.TID 0000.0001) PTRACERS_useGMRedi = /* apply GM-Redi */
(PID.TID 0000.0001)                   F
(PID.TID 0000.0001)     ;
(PID.TID 0000.0001) PTRACERS_useDWNSLP = /* apply DOWN-SLOPE Flow */
(PID.TID 0000.0001)                   F
(PID.TID 0000.0001)     ;
(PID.TID 0000.0001) PTRACERS_useKPP = /* apply KPP scheme */
(PID.TID 0000.0001)                   T
(PID.TID 0000.0001)     ;
(PID.TID 0000.0001) PTRACERS_ref = /* Reference vertical profile */
(PID.TID 0000.0001)    24 @  0.000000000000000E+00              /* K =  1: 24 */
(PID.TID 0000.0001)     ;
(PID.TID 0000.0001) PTRACERS_EvPrRn =/* tracer conc. in Evap. & Rain */
(PID.TID 0000.0001)                 1.234567000000000E+05
(PID.TID 0000.0001)     ;
(PID.TID 0000.0001)  -----------------------------------
(PID.TID 0000.0001)  tracer number :   40
(PID.TID 0000.0001) PTRACERS_names = /* Tracer short name */
(PID.TID 0000.0001)               'c23'
(PID.TID 0000.0001)     ;
(PID.TID 0000.0001) PTRACERS_long_names = /* Tracer long name */
(PID.TID 0000.0001)               ''
(PID.TID 0000.0001)     ;
(PID.TID 0000.0001) PTRACERS_ioLabel = /* tracer IO Label */
(PID.TID 0000.0001)               '40'
(PID.TID 0000.0001)     ;
(PID.TID 0000.0001) PTRACERS_advScheme = /* Advection Scheme */
(PID.TID 0000.0001)                      33
(PID.TID 0000.0001)     ;
(PID.TID 0000.0001) PTRACERS_SOM_Advection = /* tracer uses SOM advection scheme */
(PID.TID 0000.0001)                   F
(PID.TID 0000.0001)     ;
(PID.TID 0000.0001) PTRACERS_ImplVertAdv = /* implicit vert. advection flag */
(PID.TID 0000.0001)                   F
(PID.TID 0000.0001)     ;
(PID.TID 0000.0001) PTRACERS_diffKh = /* Laplacian Diffusivity */
(PID.TID 0000.0001)                 0.000000000000000E+00
(PID.TID 0000.0001)     ;
(PID.TID 0000.0001) PTRACERS_diffK4 = /* Biharmonic Diffusivity */
(PID.TID 0000.0001)                 0.000000000000000E+00
(PID.TID 0000.0001)     ;
(PID.TID 0000.0001) PTRACERS_diffKrNr = /* Vertical Diffusivity */
(PID.TID 0000.0001)    24 @  1.000000000000000E-06              /* K =  1: 24 */
(PID.TID 0000.0001)     ;
(PID.TID 0000.0001) PTRACERS_useGMRedi = /* apply GM-Redi */
(PID.TID 0000.0001)                   F
(PID.TID 0000.0001)     ;
(PID.TID 0000.0001) PTRACERS_useDWNSLP = /* apply DOWN-SLOPE Flow */
(PID.TID 0000.0001)                   F
(PID.TID 0000.0001)     ;
(PID.TID 0000.0001) PTRACERS_useKPP = /* apply KPP scheme */
(PID.TID 0000.0001)                   T
(PID.TID 0000.0001)     ;
(PID.TID 0000.0001) PTRACERS_ref = /* Reference vertical profile */
(PID.TID 0000.0001)    24 @  0.000000000000000E+00              /* K =  1: 24 */
(PID.TID 0000.0001)     ;
(PID.TID 0000.0001) PTRACERS_EvPrRn =/* tracer conc. in Evap. & Rain */
(PID.TID 0000.0001)                 1.234567000000000E+05
(PID.TID 0000.0001)     ;
(PID.TID 0000.0001)  -----------------------------------
(PID.TID 0000.0001)  tracer number :   41
(PID.TID 0000.0001) PTRACERS_names = /* Tracer short name */
(PID.TID 0000.0001)               'c24'
(PID.TID 0000.0001)     ;
(PID.TID 0000.0001) PTRACERS_long_names = /* Tracer long name */
(PID.TID 0000.0001)               ''
(PID.TID 0000.0001)     ;
(PID.TID 0000.0001) PTRACERS_ioLabel = /* tracer IO Label */
(PID.TID 0000.0001)               '41'
(PID.TID 0000.0001)     ;
(PID.TID 0000.0001) PTRACERS_advScheme = /* Advection Scheme */
(PID.TID 0000.0001)                      33
(PID.TID 0000.0001)     ;
(PID.TID 0000.0001) PTRACERS_SOM_Advection = /* tracer uses SOM advection scheme */
(PID.TID 0000.0001)                   F
(PID.TID 0000.0001)     ;
(PID.TID 0000.0001) PTRACERS_ImplVertAdv = /* implicit vert. advection flag */
(PID.TID 0000.0001)                   F
(PID.TID 0000.0001)     ;
(PID.TID 0000.0001) PTRACERS_diffKh = /* Laplacian Diffusivity */
(PID.TID 0000.0001)                 0.000000000000000E+00
(PID.TID 0000.0001)     ;
(PID.TID 0000.0001) PTRACERS_diffK4 = /* Biharmonic Diffusivity */
(PID.TID 0000.0001)                 0.000000000000000E+00
(PID.TID 0000.0001)     ;
(PID.TID 0000.0001) PTRACERS_diffKrNr = /* Vertical Diffusivity */
(PID.TID 0000.0001)    24 @  1.000000000000000E-06              /* K =  1: 24 */
(PID.TID 0000.0001)     ;
(PID.TID 0000.0001) PTRACERS_useGMRedi = /* apply GM-Redi */
(PID.TID 0000.0001)                   F
(PID.TID 0000.0001)     ;
(PID.TID 0000.0001) PTRACERS_useDWNSLP = /* apply DOWN-SLOPE Flow */
(PID.TID 0000.0001)                   F
(PID.TID 0000.0001)     ;
(PID.TID 0000.0001) PTRACERS_useKPP = /* apply KPP scheme */
(PID.TID 0000.0001)                   T
(PID.TID 0000.0001)     ;
(PID.TID 0000.0001) PTRACERS_ref = /* Reference vertical profile */
(PID.TID 0000.0001)    24 @  0.000000000000000E+00              /* K =  1: 24 */
(PID.TID 0000.0001)     ;
(PID.TID 0000.0001) PTRACERS_EvPrRn =/* tracer conc. in Evap. & Rain */
(PID.TID 0000.0001)                 1.234567000000000E+05
(PID.TID 0000.0001)     ;
(PID.TID 0000.0001)  -----------------------------------
(PID.TID 0000.0001)  tracer number :   42
(PID.TID 0000.0001) PTRACERS_names = /* Tracer short name */
(PID.TID 0000.0001)               'c25'
(PID.TID 0000.0001)     ;
(PID.TID 0000.0001) PTRACERS_long_names = /* Tracer long name */
(PID.TID 0000.0001)               ''
(PID.TID 0000.0001)     ;
(PID.TID 0000.0001) PTRACERS_ioLabel = /* tracer IO Label */
(PID.TID 0000.0001)               '42'
(PID.TID 0000.0001)     ;
(PID.TID 0000.0001) PTRACERS_advScheme = /* Advection Scheme */
(PID.TID 0000.0001)                      33
(PID.TID 0000.0001)     ;
(PID.TID 0000.0001) PTRACERS_SOM_Advection = /* tracer uses SOM advection scheme */
(PID.TID 0000.0001)                   F
(PID.TID 0000.0001)     ;
(PID.TID 0000.0001) PTRACERS_ImplVertAdv = /* implicit vert. advection flag */
(PID.TID 0000.0001)                   F
(PID.TID 0000.0001)     ;
(PID.TID 0000.0001) PTRACERS_diffKh = /* Laplacian Diffusivity */
(PID.TID 0000.0001)                 0.000000000000000E+00
(PID.TID 0000.0001)     ;
(PID.TID 0000.0001) PTRACERS_diffK4 = /* Biharmonic Diffusivity */
(PID.TID 0000.0001)                 0.000000000000000E+00
(PID.TID 0000.0001)     ;
(PID.TID 0000.0001) PTRACERS_diffKrNr = /* Vertical Diffusivity */
(PID.TID 0000.0001)    24 @  1.000000000000000E-06              /* K =  1: 24 */
(PID.TID 0000.0001)     ;
(PID.TID 0000.0001) PTRACERS_useGMRedi = /* apply GM-Redi */
(PID.TID 0000.0001)                   F
(PID.TID 0000.0001)     ;
(PID.TID 0000.0001) PTRACERS_useDWNSLP = /* apply DOWN-SLOPE Flow */
(PID.TID 0000.0001)                   F
(PID.TID 0000.0001)     ;
(PID.TID 0000.0001) PTRACERS_useKPP = /* apply KPP scheme */
(PID.TID 0000.0001)                   T
(PID.TID 0000.0001)     ;
(PID.TID 0000.0001) PTRACERS_ref = /* Reference vertical profile */
(PID.TID 0000.0001)    24 @  0.000000000000000E+00              /* K =  1: 24 */
(PID.TID 0000.0001)     ;
(PID.TID 0000.0001) PTRACERS_EvPrRn =/* tracer conc. in Evap. & Rain */
(PID.TID 0000.0001)                 1.234567000000000E+05
(PID.TID 0000.0001)     ;
(PID.TID 0000.0001)  -----------------------------------
(PID.TID 0000.0001)  tracer number :   43
(PID.TID 0000.0001) PTRACERS_names = /* Tracer short name */
(PID.TID 0000.0001)               'c26'
(PID.TID 0000.0001)     ;
(PID.TID 0000.0001) PTRACERS_long_names = /* Tracer long name */
(PID.TID 0000.0001)               ''
(PID.TID 0000.0001)     ;
(PID.TID 0000.0001) PTRACERS_ioLabel = /* tracer IO Label */
(PID.TID 0000.0001)               '43'
(PID.TID 0000.0001)     ;
(PID.TID 0000.0001) PTRACERS_advScheme = /* Advection Scheme */
(PID.TID 0000.0001)                      33
(PID.TID 0000.0001)     ;
(PID.TID 0000.0001) PTRACERS_SOM_Advection = /* tracer uses SOM advection scheme */
(PID.TID 0000.0001)                   F
(PID.TID 0000.0001)     ;
(PID.TID 0000.0001) PTRACERS_ImplVertAdv = /* implicit vert. advection flag */
(PID.TID 0000.0001)                   F
(PID.TID 0000.0001)     ;
(PID.TID 0000.0001) PTRACERS_diffKh = /* Laplacian Diffusivity */
(PID.TID 0000.0001)                 0.000000000000000E+00
(PID.TID 0000.0001)     ;
(PID.TID 0000.0001) PTRACERS_diffK4 = /* Biharmonic Diffusivity */
(PID.TID 0000.0001)                 0.000000000000000E+00
(PID.TID 0000.0001)     ;
(PID.TID 0000.0001) PTRACERS_diffKrNr = /* Vertical Diffusivity */
(PID.TID 0000.0001)    24 @  1.000000000000000E-06              /* K =  1: 24 */
(PID.TID 0000.0001)     ;
(PID.TID 0000.0001) PTRACERS_useGMRedi = /* apply GM-Redi */
(PID.TID 0000.0001)                   F
(PID.TID 0000.0001)     ;
(PID.TID 0000.0001) PTRACERS_useDWNSLP = /* apply DOWN-SLOPE Flow */
(PID.TID 0000.0001)                   F
(PID.TID 0000.0001)     ;
(PID.TID 0000.0001) PTRACERS_useKPP = /* apply KPP scheme */
(PID.TID 0000.0001)                   T
(PID.TID 0000.0001)     ;
(PID.TID 0000.0001) PTRACERS_ref = /* Reference vertical profile */
(PID.TID 0000.0001)    24 @  0.000000000000000E+00              /* K =  1: 24 */
(PID.TID 0000.0001)     ;
(PID.TID 0000.0001) PTRACERS_EvPrRn =/* tracer conc. in Evap. & Rain */
(PID.TID 0000.0001)                 1.234567000000000E+05
(PID.TID 0000.0001)     ;
(PID.TID 0000.0001)  -----------------------------------
(PID.TID 0000.0001)  tracer number :   44
(PID.TID 0000.0001) PTRACERS_names = /* Tracer short name */
(PID.TID 0000.0001)               'c27'
(PID.TID 0000.0001)     ;
(PID.TID 0000.0001) PTRACERS_long_names = /* Tracer long name */
(PID.TID 0000.0001)               ''
(PID.TID 0000.0001)     ;
(PID.TID 0000.0001) PTRACERS_ioLabel = /* tracer IO Label */
(PID.TID 0000.0001)               '44'
(PID.TID 0000.0001)     ;
(PID.TID 0000.0001) PTRACERS_advScheme = /* Advection Scheme */
(PID.TID 0000.0001)                      33
(PID.TID 0000.0001)     ;
(PID.TID 0000.0001) PTRACERS_SOM_Advection = /* tracer uses SOM advection scheme */
(PID.TID 0000.0001)                   F
(PID.TID 0000.0001)     ;
(PID.TID 0000.0001) PTRACERS_ImplVertAdv = /* implicit vert. advection flag */
(PID.TID 0000.0001)                   F
(PID.TID 0000.0001)     ;
(PID.TID 0000.0001) PTRACERS_diffKh = /* Laplacian Diffusivity */
(PID.TID 0000.0001)                 0.000000000000000E+00
(PID.TID 0000.0001)     ;
(PID.TID 0000.0001) PTRACERS_diffK4 = /* Biharmonic Diffusivity */
(PID.TID 0000.0001)                 0.000000000000000E+00
(PID.TID 0000.0001)     ;
(PID.TID 0000.0001) PTRACERS_diffKrNr = /* Vertical Diffusivity */
(PID.TID 0000.0001)    24 @  1.000000000000000E-06              /* K =  1: 24 */
(PID.TID 0000.0001)     ;
(PID.TID 0000.0001) PTRACERS_useGMRedi = /* apply GM-Redi */
(PID.TID 0000.0001)                   F
(PID.TID 0000.0001)     ;
(PID.TID 0000.0001) PTRACERS_useDWNSLP = /* apply DOWN-SLOPE Flow */
(PID.TID 0000.0001)                   F
(PID.TID 0000.0001)     ;
(PID.TID 0000.0001) PTRACERS_useKPP = /* apply KPP scheme */
(PID.TID 0000.0001)                   T
(PID.TID 0000.0001)     ;
(PID.TID 0000.0001) PTRACERS_ref = /* Reference vertical profile */
(PID.TID 0000.0001)    24 @  0.000000000000000E+00              /* K =  1: 24 */
(PID.TID 0000.0001)     ;
(PID.TID 0000.0001) PTRACERS_EvPrRn =/* tracer conc. in Evap. & Rain */
(PID.TID 0000.0001)                 1.234567000000000E+05
(PID.TID 0000.0001)     ;
(PID.TID 0000.0001)  -----------------------------------
(PID.TID 0000.0001)  tracer number :   45
(PID.TID 0000.0001) PTRACERS_names = /* Tracer short name */
(PID.TID 0000.0001)               'c28'
(PID.TID 0000.0001)     ;
(PID.TID 0000.0001) PTRACERS_long_names = /* Tracer long name */
(PID.TID 0000.0001)               ''
(PID.TID 0000.0001)     ;
(PID.TID 0000.0001) PTRACERS_ioLabel = /* tracer IO Label */
(PID.TID 0000.0001)               '45'
(PID.TID 0000.0001)     ;
(PID.TID 0000.0001) PTRACERS_advScheme = /* Advection Scheme */
(PID.TID 0000.0001)                      33
(PID.TID 0000.0001)     ;
(PID.TID 0000.0001) PTRACERS_SOM_Advection = /* tracer uses SOM advection scheme */
(PID.TID 0000.0001)                   F
(PID.TID 0000.0001)     ;
(PID.TID 0000.0001) PTRACERS_ImplVertAdv = /* implicit vert. advection flag */
(PID.TID 0000.0001)                   F
(PID.TID 0000.0001)     ;
(PID.TID 0000.0001) PTRACERS_diffKh = /* Laplacian Diffusivity */
(PID.TID 0000.0001)                 0.000000000000000E+00
(PID.TID 0000.0001)     ;
(PID.TID 0000.0001) PTRACERS_diffK4 = /* Biharmonic Diffusivity */
(PID.TID 0000.0001)                 0.000000000000000E+00
(PID.TID 0000.0001)     ;
(PID.TID 0000.0001) PTRACERS_diffKrNr = /* Vertical Diffusivity */
(PID.TID 0000.0001)    24 @  1.000000000000000E-06              /* K =  1: 24 */
(PID.TID 0000.0001)     ;
(PID.TID 0000.0001) PTRACERS_useGMRedi = /* apply GM-Redi */
(PID.TID 0000.0001)                   F
(PID.TID 0000.0001)     ;
(PID.TID 0000.0001) PTRACERS_useDWNSLP = /* apply DOWN-SLOPE Flow */
(PID.TID 0000.0001)                   F
(PID.TID 0000.0001)     ;
(PID.TID 0000.0001) PTRACERS_useKPP = /* apply KPP scheme */
(PID.TID 0000.0001)                   T
(PID.TID 0000.0001)     ;
(PID.TID 0000.0001) PTRACERS_ref = /* Reference vertical profile */
(PID.TID 0000.0001)    24 @  0.000000000000000E+00              /* K =  1: 24 */
(PID.TID 0000.0001)     ;
(PID.TID 0000.0001) PTRACERS_EvPrRn =/* tracer conc. in Evap. & Rain */
(PID.TID 0000.0001)                 1.234567000000000E+05
(PID.TID 0000.0001)     ;
(PID.TID 0000.0001)  -----------------------------------
(PID.TID 0000.0001)  tracer number :   46
(PID.TID 0000.0001) PTRACERS_names = /* Tracer short name */
(PID.TID 0000.0001)               'c29'
(PID.TID 0000.0001)     ;
(PID.TID 0000.0001) PTRACERS_long_names = /* Tracer long name */
(PID.TID 0000.0001)               ''
(PID.TID 0000.0001)     ;
(PID.TID 0000.0001) PTRACERS_ioLabel = /* tracer IO Label */
(PID.TID 0000.0001)               '46'
(PID.TID 0000.0001)     ;
(PID.TID 0000.0001) PTRACERS_advScheme = /* Advection Scheme */
(PID.TID 0000.0001)                      33
(PID.TID 0000.0001)     ;
(PID.TID 0000.0001) PTRACERS_SOM_Advection = /* tracer uses SOM advection scheme */
(PID.TID 0000.0001)                   F
(PID.TID 0000.0001)     ;
(PID.TID 0000.0001) PTRACERS_ImplVertAdv = /* implicit vert. advection flag */
(PID.TID 0000.0001)                   F
(PID.TID 0000.0001)     ;
(PID.TID 0000.0001) PTRACERS_diffKh = /* Laplacian Diffusivity */
(PID.TID 0000.0001)                 0.000000000000000E+00
(PID.TID 0000.0001)     ;
(PID.TID 0000.0001) PTRACERS_diffK4 = /* Biharmonic Diffusivity */
(PID.TID 0000.0001)                 0.000000000000000E+00
(PID.TID 0000.0001)     ;
(PID.TID 0000.0001) PTRACERS_diffKrNr = /* Vertical Diffusivity */
(PID.TID 0000.0001)    24 @  1.000000000000000E-06              /* K =  1: 24 */
(PID.TID 0000.0001)     ;
(PID.TID 0000.0001) PTRACERS_useGMRedi = /* apply GM-Redi */
(PID.TID 0000.0001)                   F
(PID.TID 0000.0001)     ;
(PID.TID 0000.0001) PTRACERS_useDWNSLP = /* apply DOWN-SLOPE Flow */
(PID.TID 0000.0001)                   F
(PID.TID 0000.0001)     ;
(PID.TID 0000.0001) PTRACERS_useKPP = /* apply KPP scheme */
(PID.TID 0000.0001)                   T
(PID.TID 0000.0001)     ;
(PID.TID 0000.0001) PTRACERS_ref = /* Reference vertical profile */
(PID.TID 0000.0001)    24 @  0.000000000000000E+00              /* K =  1: 24 */
(PID.TID 0000.0001)     ;
(PID.TID 0000.0001) PTRACERS_EvPrRn =/* tracer conc. in Evap. & Rain */
(PID.TID 0000.0001)                 1.234567000000000E+05
(PID.TID 0000.0001)     ;
(PID.TID 0000.0001)  -----------------------------------
(PID.TID 0000.0001)  tracer number :   47
(PID.TID 0000.0001) PTRACERS_names = /* Tracer short name */
(PID.TID 0000.0001)               'c30'
(PID.TID 0000.0001)     ;
(PID.TID 0000.0001) PTRACERS_long_names = /* Tracer long name */
(PID.TID 0000.0001)               ''
(PID.TID 0000.0001)     ;
(PID.TID 0000.0001) PTRACERS_ioLabel = /* tracer IO Label */
(PID.TID 0000.0001)               '47'
(PID.TID 0000.0001)     ;
(PID.TID 0000.0001) PTRACERS_advScheme = /* Advection Scheme */
(PID.TID 0000.0001)                      33
(PID.TID 0000.0001)     ;
(PID.TID 0000.0001) PTRACERS_SOM_Advection = /* tracer uses SOM advection scheme */
(PID.TID 0000.0001)                   F
(PID.TID 0000.0001)     ;
(PID.TID 0000.0001) PTRACERS_ImplVertAdv = /* implicit vert. advection flag */
(PID.TID 0000.0001)                   F
(PID.TID 0000.0001)     ;
(PID.TID 0000.0001) PTRACERS_diffKh = /* Laplacian Diffusivity */
(PID.TID 0000.0001)                 0.000000000000000E+00
(PID.TID 0000.0001)     ;
(PID.TID 0000.0001) PTRACERS_diffK4 = /* Biharmonic Diffusivity */
(PID.TID 0000.0001)                 0.000000000000000E+00
(PID.TID 0000.0001)     ;
(PID.TID 0000.0001) PTRACERS_diffKrNr = /* Vertical Diffusivity */
(PID.TID 0000.0001)    24 @  1.000000000000000E-06              /* K =  1: 24 */
(PID.TID 0000.0001)     ;
(PID.TID 0000.0001) PTRACERS_useGMRedi = /* apply GM-Redi */
(PID.TID 0000.0001)                   F
(PID.TID 0000.0001)     ;
(PID.TID 0000.0001) PTRACERS_useDWNSLP = /* apply DOWN-SLOPE Flow */
(PID.TID 0000.0001)                   F
(PID.TID 0000.0001)     ;
(PID.TID 0000.0001) PTRACERS_useKPP = /* apply KPP scheme */
(PID.TID 0000.0001)                   T
(PID.TID 0000.0001)     ;
(PID.TID 0000.0001) PTRACERS_ref = /* Reference vertical profile */
(PID.TID 0000.0001)    24 @  0.000000000000000E+00              /* K =  1: 24 */
(PID.TID 0000.0001)     ;
(PID.TID 0000.0001) PTRACERS_EvPrRn =/* tracer conc. in Evap. & Rain */
(PID.TID 0000.0001)                 1.234567000000000E+05
(PID.TID 0000.0001)     ;
(PID.TID 0000.0001)  -----------------------------------
(PID.TID 0000.0001)  tracer number :   48
(PID.TID 0000.0001) PTRACERS_names = /* Tracer short name */
(PID.TID 0000.0001)               'c31'
(PID.TID 0000.0001)     ;
(PID.TID 0000.0001) PTRACERS_long_names = /* Tracer long name */
(PID.TID 0000.0001)               ''
(PID.TID 0000.0001)     ;
(PID.TID 0000.0001) PTRACERS_ioLabel = /* tracer IO Label */
(PID.TID 0000.0001)               '48'
(PID.TID 0000.0001)     ;
(PID.TID 0000.0001) PTRACERS_advScheme = /* Advection Scheme */
(PID.TID 0000.0001)                      33
(PID.TID 0000.0001)     ;
(PID.TID 0000.0001) PTRACERS_SOM_Advection = /* tracer uses SOM advection scheme */
(PID.TID 0000.0001)                   F
(PID.TID 0000.0001)     ;
(PID.TID 0000.0001) PTRACERS_ImplVertAdv = /* implicit vert. advection flag */
(PID.TID 0000.0001)                   F
(PID.TID 0000.0001)     ;
(PID.TID 0000.0001) PTRACERS_diffKh = /* Laplacian Diffusivity */
(PID.TID 0000.0001)                 0.000000000000000E+00
(PID.TID 0000.0001)     ;
(PID.TID 0000.0001) PTRACERS_diffK4 = /* Biharmonic Diffusivity */
(PID.TID 0000.0001)                 0.000000000000000E+00
(PID.TID 0000.0001)     ;
(PID.TID 0000.0001) PTRACERS_diffKrNr = /* Vertical Diffusivity */
(PID.TID 0000.0001)    24 @  1.000000000000000E-06              /* K =  1: 24 */
(PID.TID 0000.0001)     ;
(PID.TID 0000.0001) PTRACERS_useGMRedi = /* apply GM-Redi */
(PID.TID 0000.0001)                   F
(PID.TID 0000.0001)     ;
(PID.TID 0000.0001) PTRACERS_useDWNSLP = /* apply DOWN-SLOPE Flow */
(PID.TID 0000.0001)                   F
(PID.TID 0000.0001)     ;
(PID.TID 0000.0001) PTRACERS_useKPP = /* apply KPP scheme */
(PID.TID 0000.0001)                   T
(PID.TID 0000.0001)     ;
(PID.TID 0000.0001) PTRACERS_ref = /* Reference vertical profile */
(PID.TID 0000.0001)    24 @  0.000000000000000E+00              /* K =  1: 24 */
(PID.TID 0000.0001)     ;
(PID.TID 0000.0001) PTRACERS_EvPrRn =/* tracer conc. in Evap. & Rain */
(PID.TID 0000.0001)                 1.234567000000000E+05
(PID.TID 0000.0001)     ;
(PID.TID 0000.0001)  -----------------------------------
(PID.TID 0000.0001)  tracer number :   49
(PID.TID 0000.0001) PTRACERS_names = /* Tracer short name */
(PID.TID 0000.0001)               'c32'
(PID.TID 0000.0001)     ;
(PID.TID 0000.0001) PTRACERS_long_names = /* Tracer long name */
(PID.TID 0000.0001)               ''
(PID.TID 0000.0001)     ;
(PID.TID 0000.0001) PTRACERS_ioLabel = /* tracer IO Label */
(PID.TID 0000.0001)               '49'
(PID.TID 0000.0001)     ;
(PID.TID 0000.0001) PTRACERS_advScheme = /* Advection Scheme */
(PID.TID 0000.0001)                      33
(PID.TID 0000.0001)     ;
(PID.TID 0000.0001) PTRACERS_SOM_Advection = /* tracer uses SOM advection scheme */
(PID.TID 0000.0001)                   F
(PID.TID 0000.0001)     ;
(PID.TID 0000.0001) PTRACERS_ImplVertAdv = /* implicit vert. advection flag */
(PID.TID 0000.0001)                   F
(PID.TID 0000.0001)     ;
(PID.TID 0000.0001) PTRACERS_diffKh = /* Laplacian Diffusivity */
(PID.TID 0000.0001)                 0.000000000000000E+00
(PID.TID 0000.0001)     ;
(PID.TID 0000.0001) PTRACERS_diffK4 = /* Biharmonic Diffusivity */
(PID.TID 0000.0001)                 0.000000000000000E+00
(PID.TID 0000.0001)     ;
(PID.TID 0000.0001) PTRACERS_diffKrNr = /* Vertical Diffusivity */
(PID.TID 0000.0001)    24 @  1.000000000000000E-06              /* K =  1: 24 */
(PID.TID 0000.0001)     ;
(PID.TID 0000.0001) PTRACERS_useGMRedi = /* apply GM-Redi */
(PID.TID 0000.0001)                   F
(PID.TID 0000.0001)     ;
(PID.TID 0000.0001) PTRACERS_useDWNSLP = /* apply DOWN-SLOPE Flow */
(PID.TID 0000.0001)                   F
(PID.TID 0000.0001)     ;
(PID.TID 0000.0001) PTRACERS_useKPP = /* apply KPP scheme */
(PID.TID 0000.0001)                   T
(PID.TID 0000.0001)     ;
(PID.TID 0000.0001) PTRACERS_ref = /* Reference vertical profile */
(PID.TID 0000.0001)    24 @  0.000000000000000E+00              /* K =  1: 24 */
(PID.TID 0000.0001)     ;
(PID.TID 0000.0001) PTRACERS_EvPrRn =/* tracer conc. in Evap. & Rain */
(PID.TID 0000.0001)                 1.234567000000000E+05
(PID.TID 0000.0001)     ;
(PID.TID 0000.0001)  -----------------------------------
(PID.TID 0000.0001)  tracer number :   50
(PID.TID 0000.0001) PTRACERS_names = /* Tracer short name */
(PID.TID 0000.0001)               'c33'
(PID.TID 0000.0001)     ;
(PID.TID 0000.0001) PTRACERS_long_names = /* Tracer long name */
(PID.TID 0000.0001)               ''
(PID.TID 0000.0001)     ;
(PID.TID 0000.0001) PTRACERS_ioLabel = /* tracer IO Label */
(PID.TID 0000.0001)               '50'
(PID.TID 0000.0001)     ;
(PID.TID 0000.0001) PTRACERS_advScheme = /* Advection Scheme */
(PID.TID 0000.0001)                      33
(PID.TID 0000.0001)     ;
(PID.TID 0000.0001) PTRACERS_SOM_Advection = /* tracer uses SOM advection scheme */
(PID.TID 0000.0001)                   F
(PID.TID 0000.0001)     ;
(PID.TID 0000.0001) PTRACERS_ImplVertAdv = /* implicit vert. advection flag */
(PID.TID 0000.0001)                   F
(PID.TID 0000.0001)     ;
(PID.TID 0000.0001) PTRACERS_diffKh = /* Laplacian Diffusivity */
(PID.TID 0000.0001)                 0.000000000000000E+00
(PID.TID 0000.0001)     ;
(PID.TID 0000.0001) PTRACERS_diffK4 = /* Biharmonic Diffusivity */
(PID.TID 0000.0001)                 0.000000000000000E+00
(PID.TID 0000.0001)     ;
(PID.TID 0000.0001) PTRACERS_diffKrNr = /* Vertical Diffusivity */
(PID.TID 0000.0001)    24 @  1.000000000000000E-06              /* K =  1: 24 */
(PID.TID 0000.0001)     ;
(PID.TID 0000.0001) PTRACERS_useGMRedi = /* apply GM-Redi */
(PID.TID 0000.0001)                   F
(PID.TID 0000.0001)     ;
(PID.TID 0000.0001) PTRACERS_useDWNSLP = /* apply DOWN-SLOPE Flow */
(PID.TID 0000.0001)                   F
(PID.TID 0000.0001)     ;
(PID.TID 0000.0001) PTRACERS_useKPP = /* apply KPP scheme */
(PID.TID 0000.0001)                   T
(PID.TID 0000.0001)     ;
(PID.TID 0000.0001) PTRACERS_ref = /* Reference vertical profile */
(PID.TID 0000.0001)    24 @  0.000000000000000E+00              /* K =  1: 24 */
(PID.TID 0000.0001)     ;
(PID.TID 0000.0001) PTRACERS_EvPrRn =/* tracer conc. in Evap. & Rain */
(PID.TID 0000.0001)                 1.234567000000000E+05
(PID.TID 0000.0001)     ;
(PID.TID 0000.0001)  -----------------------------------
(PID.TID 0000.0001)  tracer number :   51
(PID.TID 0000.0001) PTRACERS_names = /* Tracer short name */
(PID.TID 0000.0001)               'c34'
(PID.TID 0000.0001)     ;
(PID.TID 0000.0001) PTRACERS_long_names = /* Tracer long name */
(PID.TID 0000.0001)               ''
(PID.TID 0000.0001)     ;
(PID.TID 0000.0001) PTRACERS_ioLabel = /* tracer IO Label */
(PID.TID 0000.0001)               '51'
(PID.TID 0000.0001)     ;
(PID.TID 0000.0001) PTRACERS_advScheme = /* Advection Scheme */
(PID.TID 0000.0001)                      33
(PID.TID 0000.0001)     ;
(PID.TID 0000.0001) PTRACERS_SOM_Advection = /* tracer uses SOM advection scheme */
(PID.TID 0000.0001)                   F
(PID.TID 0000.0001)     ;
(PID.TID 0000.0001) PTRACERS_ImplVertAdv = /* implicit vert. advection flag */
(PID.TID 0000.0001)                   F
(PID.TID 0000.0001)     ;
(PID.TID 0000.0001) PTRACERS_diffKh = /* Laplacian Diffusivity */
(PID.TID 0000.0001)                 0.000000000000000E+00
(PID.TID 0000.0001)     ;
(PID.TID 0000.0001) PTRACERS_diffK4 = /* Biharmonic Diffusivity */
(PID.TID 0000.0001)                 0.000000000000000E+00
(PID.TID 0000.0001)     ;
(PID.TID 0000.0001) PTRACERS_diffKrNr = /* Vertical Diffusivity */
(PID.TID 0000.0001)    24 @  1.000000000000000E-06              /* K =  1: 24 */
(PID.TID 0000.0001)     ;
(PID.TID 0000.0001) PTRACERS_useGMRedi = /* apply GM-Redi */
(PID.TID 0000.0001)                   F
(PID.TID 0000.0001)     ;
(PID.TID 0000.0001) PTRACERS_useDWNSLP = /* apply DOWN-SLOPE Flow */
(PID.TID 0000.0001)                   F
(PID.TID 0000.0001)     ;
(PID.TID 0000.0001) PTRACERS_useKPP = /* apply KPP scheme */
(PID.TID 0000.0001)                   T
(PID.TID 0000.0001)     ;
(PID.TID 0000.0001) PTRACERS_ref = /* Reference vertical profile */
(PID.TID 0000.0001)    24 @  0.000000000000000E+00              /* K =  1: 24 */
(PID.TID 0000.0001)     ;
(PID.TID 0000.0001) PTRACERS_EvPrRn =/* tracer conc. in Evap. & Rain */
(PID.TID 0000.0001)                 1.234567000000000E+05
(PID.TID 0000.0001)     ;
(PID.TID 0000.0001)  -----------------------------------
(PID.TID 0000.0001)  tracer number :   52
(PID.TID 0000.0001) PTRACERS_names = /* Tracer short name */
(PID.TID 0000.0001)               'c35'
(PID.TID 0000.0001)     ;
(PID.TID 0000.0001) PTRACERS_long_names = /* Tracer long name */
(PID.TID 0000.0001)               ''
(PID.TID 0000.0001)     ;
(PID.TID 0000.0001) PTRACERS_ioLabel = /* tracer IO Label */
(PID.TID 0000.0001)               '52'
(PID.TID 0000.0001)     ;
(PID.TID 0000.0001) PTRACERS_advScheme = /* Advection Scheme */
(PID.TID 0000.0001)                      33
(PID.TID 0000.0001)     ;
(PID.TID 0000.0001) PTRACERS_SOM_Advection = /* tracer uses SOM advection scheme */
(PID.TID 0000.0001)                   F
(PID.TID 0000.0001)     ;
(PID.TID 0000.0001) PTRACERS_ImplVertAdv = /* implicit vert. advection flag */
(PID.TID 0000.0001)                   F
(PID.TID 0000.0001)     ;
(PID.TID 0000.0001) PTRACERS_diffKh = /* Laplacian Diffusivity */
(PID.TID 0000.0001)                 0.000000000000000E+00
(PID.TID 0000.0001)     ;
(PID.TID 0000.0001) PTRACERS_diffK4 = /* Biharmonic Diffusivity */
(PID.TID 0000.0001)                 0.000000000000000E+00
(PID.TID 0000.0001)     ;
(PID.TID 0000.0001) PTRACERS_diffKrNr = /* Vertical Diffusivity */
(PID.TID 0000.0001)    24 @  1.000000000000000E-06              /* K =  1: 24 */
(PID.TID 0000.0001)     ;
(PID.TID 0000.0001) PTRACERS_useGMRedi = /* apply GM-Redi */
(PID.TID 0000.0001)                   F
(PID.TID 0000.0001)     ;
(PID.TID 0000.0001) PTRACERS_useDWNSLP = /* apply DOWN-SLOPE Flow */
(PID.TID 0000.0001)                   F
(PID.TID 0000.0001)     ;
(PID.TID 0000.0001) PTRACERS_useKPP = /* apply KPP scheme */
(PID.TID 0000.0001)                   T
(PID.TID 0000.0001)     ;
(PID.TID 0000.0001) PTRACERS_ref = /* Reference vertical profile */
(PID.TID 0000.0001)    24 @  0.000000000000000E+00              /* K =  1: 24 */
(PID.TID 0000.0001)     ;
(PID.TID 0000.0001) PTRACERS_EvPrRn =/* tracer conc. in Evap. & Rain */
(PID.TID 0000.0001)                 1.234567000000000E+05
(PID.TID 0000.0001)     ;
(PID.TID 0000.0001)  -----------------------------------
(PID.TID 0000.0001)  tracer number :   53
(PID.TID 0000.0001) PTRACERS_names = /* Tracer short name */
(PID.TID 0000.0001)               'c36'
(PID.TID 0000.0001)     ;
(PID.TID 0000.0001) PTRACERS_long_names = /* Tracer long name */
(PID.TID 0000.0001)               ''
(PID.TID 0000.0001)     ;
(PID.TID 0000.0001) PTRACERS_ioLabel = /* tracer IO Label */
(PID.TID 0000.0001)               '53'
(PID.TID 0000.0001)     ;
(PID.TID 0000.0001) PTRACERS_advScheme = /* Advection Scheme */
(PID.TID 0000.0001)                      33
(PID.TID 0000.0001)     ;
(PID.TID 0000.0001) PTRACERS_SOM_Advection = /* tracer uses SOM advection scheme */
(PID.TID 0000.0001)                   F
(PID.TID 0000.0001)     ;
(PID.TID 0000.0001) PTRACERS_ImplVertAdv = /* implicit vert. advection flag */
(PID.TID 0000.0001)                   F
(PID.TID 0000.0001)     ;
(PID.TID 0000.0001) PTRACERS_diffKh = /* Laplacian Diffusivity */
(PID.TID 0000.0001)                 0.000000000000000E+00
(PID.TID 0000.0001)     ;
(PID.TID 0000.0001) PTRACERS_diffK4 = /* Biharmonic Diffusivity */
(PID.TID 0000.0001)                 0.000000000000000E+00
(PID.TID 0000.0001)     ;
(PID.TID 0000.0001) PTRACERS_diffKrNr = /* Vertical Diffusivity */
(PID.TID 0000.0001)    24 @  1.000000000000000E-06              /* K =  1: 24 */
(PID.TID 0000.0001)     ;
(PID.TID 0000.0001) PTRACERS_useGMRedi = /* apply GM-Redi */
(PID.TID 0000.0001)                   F
(PID.TID 0000.0001)     ;
(PID.TID 0000.0001) PTRACERS_useDWNSLP = /* apply DOWN-SLOPE Flow */
(PID.TID 0000.0001)                   F
(PID.TID 0000.0001)     ;
(PID.TID 0000.0001) PTRACERS_useKPP = /* apply KPP scheme */
(PID.TID 0000.0001)                   T
(PID.TID 0000.0001)     ;
(PID.TID 0000.0001) PTRACERS_ref = /* Reference vertical profile */
(PID.TID 0000.0001)    24 @  0.000000000000000E+00              /* K =  1: 24 */
(PID.TID 0000.0001)     ;
(PID.TID 0000.0001) PTRACERS_EvPrRn =/* tracer conc. in Evap. & Rain */
(PID.TID 0000.0001)                 1.234567000000000E+05
(PID.TID 0000.0001)     ;
(PID.TID 0000.0001)  -----------------------------------
(PID.TID 0000.0001)  tracer number :   54
(PID.TID 0000.0001) PTRACERS_names = /* Tracer short name */
(PID.TID 0000.0001)               'c37'
(PID.TID 0000.0001)     ;
(PID.TID 0000.0001) PTRACERS_long_names = /* Tracer long name */
(PID.TID 0000.0001)               ''
(PID.TID 0000.0001)     ;
(PID.TID 0000.0001) PTRACERS_ioLabel = /* tracer IO Label */
(PID.TID 0000.0001)               '54'
(PID.TID 0000.0001)     ;
(PID.TID 0000.0001) PTRACERS_advScheme = /* Advection Scheme */
(PID.TID 0000.0001)                      33
(PID.TID 0000.0001)     ;
(PID.TID 0000.0001) PTRACERS_SOM_Advection = /* tracer uses SOM advection scheme */
(PID.TID 0000.0001)                   F
(PID.TID 0000.0001)     ;
(PID.TID 0000.0001) PTRACERS_ImplVertAdv = /* implicit vert. advection flag */
(PID.TID 0000.0001)                   F
(PID.TID 0000.0001)     ;
(PID.TID 0000.0001) PTRACERS_diffKh = /* Laplacian Diffusivity */
(PID.TID 0000.0001)                 0.000000000000000E+00
(PID.TID 0000.0001)     ;
(PID.TID 0000.0001) PTRACERS_diffK4 = /* Biharmonic Diffusivity */
(PID.TID 0000.0001)                 0.000000000000000E+00
(PID.TID 0000.0001)     ;
(PID.TID 0000.0001) PTRACERS_diffKrNr = /* Vertical Diffusivity */
(PID.TID 0000.0001)    24 @  1.000000000000000E-06              /* K =  1: 24 */
(PID.TID 0000.0001)     ;
(PID.TID 0000.0001) PTRACERS_useGMRedi = /* apply GM-Redi */
(PID.TID 0000.0001)                   F
(PID.TID 0000.0001)     ;
(PID.TID 0000.0001) PTRACERS_useDWNSLP = /* apply DOWN-SLOPE Flow */
(PID.TID 0000.0001)                   F
(PID.TID 0000.0001)     ;
(PID.TID 0000.0001) PTRACERS_useKPP = /* apply KPP scheme */
(PID.TID 0000.0001)                   T
(PID.TID 0000.0001)     ;
(PID.TID 0000.0001) PTRACERS_ref = /* Reference vertical profile */
(PID.TID 0000.0001)    24 @  0.000000000000000E+00              /* K =  1: 24 */
(PID.TID 0000.0001)     ;
(PID.TID 0000.0001) PTRACERS_EvPrRn =/* tracer conc. in Evap. & Rain */
(PID.TID 0000.0001)                 1.234567000000000E+05
(PID.TID 0000.0001)     ;
(PID.TID 0000.0001)  -----------------------------------
(PID.TID 0000.0001)  tracer number :   55
(PID.TID 0000.0001) PTRACERS_names = /* Tracer short name */
(PID.TID 0000.0001)               'c38'
(PID.TID 0000.0001)     ;
(PID.TID 0000.0001) PTRACERS_long_names = /* Tracer long name */
(PID.TID 0000.0001)               ''
(PID.TID 0000.0001)     ;
(PID.TID 0000.0001) PTRACERS_ioLabel = /* tracer IO Label */
(PID.TID 0000.0001)               '55'
(PID.TID 0000.0001)     ;
(PID.TID 0000.0001) PTRACERS_advScheme = /* Advection Scheme */
(PID.TID 0000.0001)                      33
(PID.TID 0000.0001)     ;
(PID.TID 0000.0001) PTRACERS_SOM_Advection = /* tracer uses SOM advection scheme */
(PID.TID 0000.0001)                   F
(PID.TID 0000.0001)     ;
(PID.TID 0000.0001) PTRACERS_ImplVertAdv = /* implicit vert. advection flag */
(PID.TID 0000.0001)                   F
(PID.TID 0000.0001)     ;
(PID.TID 0000.0001) PTRACERS_diffKh = /* Laplacian Diffusivity */
(PID.TID 0000.0001)                 0.000000000000000E+00
(PID.TID 0000.0001)     ;
(PID.TID 0000.0001) PTRACERS_diffK4 = /* Biharmonic Diffusivity */
(PID.TID 0000.0001)                 0.000000000000000E+00
(PID.TID 0000.0001)     ;
(PID.TID 0000.0001) PTRACERS_diffKrNr = /* Vertical Diffusivity */
(PID.TID 0000.0001)    24 @  1.000000000000000E-06              /* K =  1: 24 */
(PID.TID 0000.0001)     ;
(PID.TID 0000.0001) PTRACERS_useGMRedi = /* apply GM-Redi */
(PID.TID 0000.0001)                   F
(PID.TID 0000.0001)     ;
(PID.TID 0000.0001) PTRACERS_useDWNSLP = /* apply DOWN-SLOPE Flow */
(PID.TID 0000.0001)                   F
(PID.TID 0000.0001)     ;
(PID.TID 0000.0001) PTRACERS_useKPP = /* apply KPP scheme */
(PID.TID 0000.0001)                   T
(PID.TID 0000.0001)     ;
(PID.TID 0000.0001) PTRACERS_ref = /* Reference vertical profile */
(PID.TID 0000.0001)    24 @  0.000000000000000E+00              /* K =  1: 24 */
(PID.TID 0000.0001)     ;
(PID.TID 0000.0001) PTRACERS_EvPrRn =/* tracer conc. in Evap. & Rain */
(PID.TID 0000.0001)                 1.234567000000000E+05
(PID.TID 0000.0001)     ;
(PID.TID 0000.0001)  -----------------------------------
(PID.TID 0000.0001)  tracer number :   56
(PID.TID 0000.0001) PTRACERS_names = /* Tracer short name */
(PID.TID 0000.0001)               'c39'
(PID.TID 0000.0001)     ;
(PID.TID 0000.0001) PTRACERS_long_names = /* Tracer long name */
(PID.TID 0000.0001)               ''
(PID.TID 0000.0001)     ;
(PID.TID 0000.0001) PTRACERS_ioLabel = /* tracer IO Label */
(PID.TID 0000.0001)               '56'
(PID.TID 0000.0001)     ;
(PID.TID 0000.0001) PTRACERS_advScheme = /* Advection Scheme */
(PID.TID 0000.0001)                      33
(PID.TID 0000.0001)     ;
(PID.TID 0000.0001) PTRACERS_SOM_Advection = /* tracer uses SOM advection scheme */
(PID.TID 0000.0001)                   F
(PID.TID 0000.0001)     ;
(PID.TID 0000.0001) PTRACERS_ImplVertAdv = /* implicit vert. advection flag */
(PID.TID 0000.0001)                   F
(PID.TID 0000.0001)     ;
(PID.TID 0000.0001) PTRACERS_diffKh = /* Laplacian Diffusivity */
(PID.TID 0000.0001)                 0.000000000000000E+00
(PID.TID 0000.0001)     ;
(PID.TID 0000.0001) PTRACERS_diffK4 = /* Biharmonic Diffusivity */
(PID.TID 0000.0001)                 0.000000000000000E+00
(PID.TID 0000.0001)     ;
(PID.TID 0000.0001) PTRACERS_diffKrNr = /* Vertical Diffusivity */
(PID.TID 0000.0001)    24 @  1.000000000000000E-06              /* K =  1: 24 */
(PID.TID 0000.0001)     ;
(PID.TID 0000.0001) PTRACERS_useGMRedi = /* apply GM-Redi */
(PID.TID 0000.0001)                   F
(PID.TID 0000.0001)     ;
(PID.TID 0000.0001) PTRACERS_useDWNSLP = /* apply DOWN-SLOPE Flow */
(PID.TID 0000.0001)                   F
(PID.TID 0000.0001)     ;
(PID.TID 0000.0001) PTRACERS_useKPP = /* apply KPP scheme */
(PID.TID 0000.0001)                   T
(PID.TID 0000.0001)     ;
(PID.TID 0000.0001) PTRACERS_ref = /* Reference vertical profile */
(PID.TID 0000.0001)    24 @  0.000000000000000E+00              /* K =  1: 24 */
(PID.TID 0000.0001)     ;
(PID.TID 0000.0001) PTRACERS_EvPrRn =/* tracer conc. in Evap. & Rain */
(PID.TID 0000.0001)                 1.234567000000000E+05
(PID.TID 0000.0001)     ;
(PID.TID 0000.0001)  -----------------------------------
(PID.TID 0000.0001)  tracer number :   57
(PID.TID 0000.0001) PTRACERS_names = /* Tracer short name */
(PID.TID 0000.0001)               'c40'
(PID.TID 0000.0001)     ;
(PID.TID 0000.0001) PTRACERS_long_names = /* Tracer long name */
(PID.TID 0000.0001)               ''
(PID.TID 0000.0001)     ;
(PID.TID 0000.0001) PTRACERS_ioLabel = /* tracer IO Label */
(PID.TID 0000.0001)               '57'
(PID.TID 0000.0001)     ;
(PID.TID 0000.0001) PTRACERS_advScheme = /* Advection Scheme */
(PID.TID 0000.0001)                      33
(PID.TID 0000.0001)     ;
(PID.TID 0000.0001) PTRACERS_SOM_Advection = /* tracer uses SOM advection scheme */
(PID.TID 0000.0001)                   F
(PID.TID 0000.0001)     ;
(PID.TID 0000.0001) PTRACERS_ImplVertAdv = /* implicit vert. advection flag */
(PID.TID 0000.0001)                   F
(PID.TID 0000.0001)     ;
(PID.TID 0000.0001) PTRACERS_diffKh = /* Laplacian Diffusivity */
(PID.TID 0000.0001)                 0.000000000000000E+00
(PID.TID 0000.0001)     ;
(PID.TID 0000.0001) PTRACERS_diffK4 = /* Biharmonic Diffusivity */
(PID.TID 0000.0001)                 0.000000000000000E+00
(PID.TID 0000.0001)     ;
(PID.TID 0000.0001) PTRACERS_diffKrNr = /* Vertical Diffusivity */
(PID.TID 0000.0001)    24 @  1.000000000000000E-06              /* K =  1: 24 */
(PID.TID 0000.0001)     ;
(PID.TID 0000.0001) PTRACERS_useGMRedi = /* apply GM-Redi */
(PID.TID 0000.0001)                   F
(PID.TID 0000.0001)     ;
(PID.TID 0000.0001) PTRACERS_useDWNSLP = /* apply DOWN-SLOPE Flow */
(PID.TID 0000.0001)                   F
(PID.TID 0000.0001)     ;
(PID.TID 0000.0001) PTRACERS_useKPP = /* apply KPP scheme */
(PID.TID 0000.0001)                   T
(PID.TID 0000.0001)     ;
(PID.TID 0000.0001) PTRACERS_ref = /* Reference vertical profile */
(PID.TID 0000.0001)    24 @  0.000000000000000E+00              /* K =  1: 24 */
(PID.TID 0000.0001)     ;
(PID.TID 0000.0001) PTRACERS_EvPrRn =/* tracer conc. in Evap. & Rain */
(PID.TID 0000.0001)                 1.234567000000000E+05
(PID.TID 0000.0001)     ;
(PID.TID 0000.0001)  -----------------------------------
(PID.TID 0000.0001)  tracer number :   58
(PID.TID 0000.0001) PTRACERS_names = /* Tracer short name */
(PID.TID 0000.0001)               'c41'
(PID.TID 0000.0001)     ;
(PID.TID 0000.0001) PTRACERS_long_names = /* Tracer long name */
(PID.TID 0000.0001)               ''
(PID.TID 0000.0001)     ;
(PID.TID 0000.0001) PTRACERS_ioLabel = /* tracer IO Label */
(PID.TID 0000.0001)               '58'
(PID.TID 0000.0001)     ;
(PID.TID 0000.0001) PTRACERS_advScheme = /* Advection Scheme */
(PID.TID 0000.0001)                      33
(PID.TID 0000.0001)     ;
(PID.TID 0000.0001) PTRACERS_SOM_Advection = /* tracer uses SOM advection scheme */
(PID.TID 0000.0001)                   F
(PID.TID 0000.0001)     ;
(PID.TID 0000.0001) PTRACERS_ImplVertAdv = /* implicit vert. advection flag */
(PID.TID 0000.0001)                   F
(PID.TID 0000.0001)     ;
(PID.TID 0000.0001) PTRACERS_diffKh = /* Laplacian Diffusivity */
(PID.TID 0000.0001)                 0.000000000000000E+00
(PID.TID 0000.0001)     ;
(PID.TID 0000.0001) PTRACERS_diffK4 = /* Biharmonic Diffusivity */
(PID.TID 0000.0001)                 0.000000000000000E+00
(PID.TID 0000.0001)     ;
(PID.TID 0000.0001) PTRACERS_diffKrNr = /* Vertical Diffusivity */
(PID.TID 0000.0001)    24 @  1.000000000000000E-06              /* K =  1: 24 */
(PID.TID 0000.0001)     ;
(PID.TID 0000.0001) PTRACERS_useGMRedi = /* apply GM-Redi */
(PID.TID 0000.0001)                   F
(PID.TID 0000.0001)     ;
(PID.TID 0000.0001) PTRACERS_useDWNSLP = /* apply DOWN-SLOPE Flow */
(PID.TID 0000.0001)                   F
(PID.TID 0000.0001)     ;
(PID.TID 0000.0001) PTRACERS_useKPP = /* apply KPP scheme */
(PID.TID 0000.0001)                   T
(PID.TID 0000.0001)     ;
(PID.TID 0000.0001) PTRACERS_ref = /* Reference vertical profile */
(PID.TID 0000.0001)    24 @  0.000000000000000E+00              /* K =  1: 24 */
(PID.TID 0000.0001)     ;
(PID.TID 0000.0001) PTRACERS_EvPrRn =/* tracer conc. in Evap. & Rain */
(PID.TID 0000.0001)                 1.234567000000000E+05
(PID.TID 0000.0001)     ;
(PID.TID 0000.0001)  -----------------------------------
(PID.TID 0000.0001)  tracer number :   59
(PID.TID 0000.0001) PTRACERS_names = /* Tracer short name */
(PID.TID 0000.0001)               'c42'
(PID.TID 0000.0001)     ;
(PID.TID 0000.0001) PTRACERS_long_names = /* Tracer long name */
(PID.TID 0000.0001)               ''
(PID.TID 0000.0001)     ;
(PID.TID 0000.0001) PTRACERS_ioLabel = /* tracer IO Label */
(PID.TID 0000.0001)               '59'
(PID.TID 0000.0001)     ;
(PID.TID 0000.0001) PTRACERS_advScheme = /* Advection Scheme */
(PID.TID 0000.0001)                      33
(PID.TID 0000.0001)     ;
(PID.TID 0000.0001) PTRACERS_SOM_Advection = /* tracer uses SOM advection scheme */
(PID.TID 0000.0001)                   F
(PID.TID 0000.0001)     ;
(PID.TID 0000.0001) PTRACERS_ImplVertAdv = /* implicit vert. advection flag */
(PID.TID 0000.0001)                   F
(PID.TID 0000.0001)     ;
(PID.TID 0000.0001) PTRACERS_diffKh = /* Laplacian Diffusivity */
(PID.TID 0000.0001)                 0.000000000000000E+00
(PID.TID 0000.0001)     ;
(PID.TID 0000.0001) PTRACERS_diffK4 = /* Biharmonic Diffusivity */
(PID.TID 0000.0001)                 0.000000000000000E+00
(PID.TID 0000.0001)     ;
(PID.TID 0000.0001) PTRACERS_diffKrNr = /* Vertical Diffusivity */
(PID.TID 0000.0001)    24 @  1.000000000000000E-06              /* K =  1: 24 */
(PID.TID 0000.0001)     ;
(PID.TID 0000.0001) PTRACERS_useGMRedi = /* apply GM-Redi */
(PID.TID 0000.0001)                   F
(PID.TID 0000.0001)     ;
(PID.TID 0000.0001) PTRACERS_useDWNSLP = /* apply DOWN-SLOPE Flow */
(PID.TID 0000.0001)                   F
(PID.TID 0000.0001)     ;
(PID.TID 0000.0001) PTRACERS_useKPP = /* apply KPP scheme */
(PID.TID 0000.0001)                   T
(PID.TID 0000.0001)     ;
(PID.TID 0000.0001) PTRACERS_ref = /* Reference vertical profile */
(PID.TID 0000.0001)    24 @  0.000000000000000E+00              /* K =  1: 24 */
(PID.TID 0000.0001)     ;
(PID.TID 0000.0001) PTRACERS_EvPrRn =/* tracer conc. in Evap. & Rain */
(PID.TID 0000.0001)                 1.234567000000000E+05
(PID.TID 0000.0001)     ;
(PID.TID 0000.0001)  -----------------------------------
(PID.TID 0000.0001)  tracer number :   60
(PID.TID 0000.0001) PTRACERS_names = /* Tracer short name */
(PID.TID 0000.0001)               'c43'
(PID.TID 0000.0001)     ;
(PID.TID 0000.0001) PTRACERS_long_names = /* Tracer long name */
(PID.TID 0000.0001)               ''
(PID.TID 0000.0001)     ;
(PID.TID 0000.0001) PTRACERS_ioLabel = /* tracer IO Label */
(PID.TID 0000.0001)               '60'
(PID.TID 0000.0001)     ;
(PID.TID 0000.0001) PTRACERS_advScheme = /* Advection Scheme */
(PID.TID 0000.0001)                      33
(PID.TID 0000.0001)     ;
(PID.TID 0000.0001) PTRACERS_SOM_Advection = /* tracer uses SOM advection scheme */
(PID.TID 0000.0001)                   F
(PID.TID 0000.0001)     ;
(PID.TID 0000.0001) PTRACERS_ImplVertAdv = /* implicit vert. advection flag */
(PID.TID 0000.0001)                   F
(PID.TID 0000.0001)     ;
(PID.TID 0000.0001) PTRACERS_diffKh = /* Laplacian Diffusivity */
(PID.TID 0000.0001)                 0.000000000000000E+00
(PID.TID 0000.0001)     ;
(PID.TID 0000.0001) PTRACERS_diffK4 = /* Biharmonic Diffusivity */
(PID.TID 0000.0001)                 0.000000000000000E+00
(PID.TID 0000.0001)     ;
(PID.TID 0000.0001) PTRACERS_diffKrNr = /* Vertical Diffusivity */
(PID.TID 0000.0001)    24 @  1.000000000000000E-06              /* K =  1: 24 */
(PID.TID 0000.0001)     ;
(PID.TID 0000.0001) PTRACERS_useGMRedi = /* apply GM-Redi */
(PID.TID 0000.0001)                   F
(PID.TID 0000.0001)     ;
(PID.TID 0000.0001) PTRACERS_useDWNSLP = /* apply DOWN-SLOPE Flow */
(PID.TID 0000.0001)                   F
(PID.TID 0000.0001)     ;
(PID.TID 0000.0001) PTRACERS_useKPP = /* apply KPP scheme */
(PID.TID 0000.0001)                   T
(PID.TID 0000.0001)     ;
(PID.TID 0000.0001) PTRACERS_ref = /* Reference vertical profile */
(PID.TID 0000.0001)    24 @  0.000000000000000E+00              /* K =  1: 24 */
(PID.TID 0000.0001)     ;
(PID.TID 0000.0001) PTRACERS_EvPrRn =/* tracer conc. in Evap. & Rain */
(PID.TID 0000.0001)                 1.234567000000000E+05
(PID.TID 0000.0001)     ;
(PID.TID 0000.0001)  -----------------------------------
(PID.TID 0000.0001)  tracer number :   61
(PID.TID 0000.0001) PTRACERS_names = /* Tracer short name */
(PID.TID 0000.0001)               'c44'
(PID.TID 0000.0001)     ;
(PID.TID 0000.0001) PTRACERS_long_names = /* Tracer long name */
(PID.TID 0000.0001)               ''
(PID.TID 0000.0001)     ;
(PID.TID 0000.0001) PTRACERS_ioLabel = /* tracer IO Label */
(PID.TID 0000.0001)               '61'
(PID.TID 0000.0001)     ;
(PID.TID 0000.0001) PTRACERS_advScheme = /* Advection Scheme */
(PID.TID 0000.0001)                      33
(PID.TID 0000.0001)     ;
(PID.TID 0000.0001) PTRACERS_SOM_Advection = /* tracer uses SOM advection scheme */
(PID.TID 0000.0001)                   F
(PID.TID 0000.0001)     ;
(PID.TID 0000.0001) PTRACERS_ImplVertAdv = /* implicit vert. advection flag */
(PID.TID 0000.0001)                   F
(PID.TID 0000.0001)     ;
(PID.TID 0000.0001) PTRACERS_diffKh = /* Laplacian Diffusivity */
(PID.TID 0000.0001)                 0.000000000000000E+00
(PID.TID 0000.0001)     ;
(PID.TID 0000.0001) PTRACERS_diffK4 = /* Biharmonic Diffusivity */
(PID.TID 0000.0001)                 0.000000000000000E+00
(PID.TID 0000.0001)     ;
(PID.TID 0000.0001) PTRACERS_diffKrNr = /* Vertical Diffusivity */
(PID.TID 0000.0001)    24 @  1.000000000000000E-06              /* K =  1: 24 */
(PID.TID 0000.0001)     ;
(PID.TID 0000.0001) PTRACERS_useGMRedi = /* apply GM-Redi */
(PID.TID 0000.0001)                   F
(PID.TID 0000.0001)     ;
(PID.TID 0000.0001) PTRACERS_useDWNSLP = /* apply DOWN-SLOPE Flow */
(PID.TID 0000.0001)                   F
(PID.TID 0000.0001)     ;
(PID.TID 0000.0001) PTRACERS_useKPP = /* apply KPP scheme */
(PID.TID 0000.0001)                   T
(PID.TID 0000.0001)     ;
(PID.TID 0000.0001) PTRACERS_ref = /* Reference vertical profile */
(PID.TID 0000.0001)    24 @  0.000000000000000E+00              /* K =  1: 24 */
(PID.TID 0000.0001)     ;
(PID.TID 0000.0001) PTRACERS_EvPrRn =/* tracer conc. in Evap. & Rain */
(PID.TID 0000.0001)                 1.234567000000000E+05
(PID.TID 0000.0001)     ;
(PID.TID 0000.0001)  -----------------------------------
(PID.TID 0000.0001)  tracer number :   62
(PID.TID 0000.0001) PTRACERS_names = /* Tracer short name */
(PID.TID 0000.0001)               'c45'
(PID.TID 0000.0001)     ;
(PID.TID 0000.0001) PTRACERS_long_names = /* Tracer long name */
(PID.TID 0000.0001)               ''
(PID.TID 0000.0001)     ;
(PID.TID 0000.0001) PTRACERS_ioLabel = /* tracer IO Label */
(PID.TID 0000.0001)               '62'
(PID.TID 0000.0001)     ;
(PID.TID 0000.0001) PTRACERS_advScheme = /* Advection Scheme */
(PID.TID 0000.0001)                      33
(PID.TID 0000.0001)     ;
(PID.TID 0000.0001) PTRACERS_SOM_Advection = /* tracer uses SOM advection scheme */
(PID.TID 0000.0001)                   F
(PID.TID 0000.0001)     ;
(PID.TID 0000.0001) PTRACERS_ImplVertAdv = /* implicit vert. advection flag */
(PID.TID 0000.0001)                   F
(PID.TID 0000.0001)     ;
(PID.TID 0000.0001) PTRACERS_diffKh = /* Laplacian Diffusivity */
(PID.TID 0000.0001)                 0.000000000000000E+00
(PID.TID 0000.0001)     ;
(PID.TID 0000.0001) PTRACERS_diffK4 = /* Biharmonic Diffusivity */
(PID.TID 0000.0001)                 0.000000000000000E+00
(PID.TID 0000.0001)     ;
(PID.TID 0000.0001) PTRACERS_diffKrNr = /* Vertical Diffusivity */
(PID.TID 0000.0001)    24 @  1.000000000000000E-06              /* K =  1: 24 */
(PID.TID 0000.0001)     ;
(PID.TID 0000.0001) PTRACERS_useGMRedi = /* apply GM-Redi */
(PID.TID 0000.0001)                   F
(PID.TID 0000.0001)     ;
(PID.TID 0000.0001) PTRACERS_useDWNSLP = /* apply DOWN-SLOPE Flow */
(PID.TID 0000.0001)                   F
(PID.TID 0000.0001)     ;
(PID.TID 0000.0001) PTRACERS_useKPP = /* apply KPP scheme */
(PID.TID 0000.0001)                   T
(PID.TID 0000.0001)     ;
(PID.TID 0000.0001) PTRACERS_ref = /* Reference vertical profile */
(PID.TID 0000.0001)    24 @  0.000000000000000E+00              /* K =  1: 24 */
(PID.TID 0000.0001)     ;
(PID.TID 0000.0001) PTRACERS_EvPrRn =/* tracer conc. in Evap. & Rain */
(PID.TID 0000.0001)                 1.234567000000000E+05
(PID.TID 0000.0001)     ;
(PID.TID 0000.0001)  -----------------------------------
(PID.TID 0000.0001)  tracer number :   63
(PID.TID 0000.0001) PTRACERS_names = /* Tracer short name */
(PID.TID 0000.0001)               'c46'
(PID.TID 0000.0001)     ;
(PID.TID 0000.0001) PTRACERS_long_names = /* Tracer long name */
(PID.TID 0000.0001)               ''
(PID.TID 0000.0001)     ;
(PID.TID 0000.0001) PTRACERS_ioLabel = /* tracer IO Label */
(PID.TID 0000.0001)               '63'
(PID.TID 0000.0001)     ;
(PID.TID 0000.0001) PTRACERS_advScheme = /* Advection Scheme */
(PID.TID 0000.0001)                      33
(PID.TID 0000.0001)     ;
(PID.TID 0000.0001) PTRACERS_SOM_Advection = /* tracer uses SOM advection scheme */
(PID.TID 0000.0001)                   F
(PID.TID 0000.0001)     ;
(PID.TID 0000.0001) PTRACERS_ImplVertAdv = /* implicit vert. advection flag */
(PID.TID 0000.0001)                   F
(PID.TID 0000.0001)     ;
(PID.TID 0000.0001) PTRACERS_diffKh = /* Laplacian Diffusivity */
(PID.TID 0000.0001)                 0.000000000000000E+00
(PID.TID 0000.0001)     ;
(PID.TID 0000.0001) PTRACERS_diffK4 = /* Biharmonic Diffusivity */
(PID.TID 0000.0001)                 0.000000000000000E+00
(PID.TID 0000.0001)     ;
(PID.TID 0000.0001) PTRACERS_diffKrNr = /* Vertical Diffusivity */
(PID.TID 0000.0001)    24 @  1.000000000000000E-06              /* K =  1: 24 */
(PID.TID 0000.0001)     ;
(PID.TID 0000.0001) PTRACERS_useGMRedi = /* apply GM-Redi */
(PID.TID 0000.0001)                   F
(PID.TID 0000.0001)     ;
(PID.TID 0000.0001) PTRACERS_useDWNSLP = /* apply DOWN-SLOPE Flow */
(PID.TID 0000.0001)                   F
(PID.TID 0000.0001)     ;
(PID.TID 0000.0001) PTRACERS_useKPP = /* apply KPP scheme */
(PID.TID 0000.0001)                   T
(PID.TID 0000.0001)     ;
(PID.TID 0000.0001) PTRACERS_ref = /* Reference vertical profile */
(PID.TID 0000.0001)    24 @  0.000000000000000E+00              /* K =  1: 24 */
(PID.TID 0000.0001)     ;
(PID.TID 0000.0001) PTRACERS_EvPrRn =/* tracer conc. in Evap. & Rain */
(PID.TID 0000.0001)                 1.234567000000000E+05
(PID.TID 0000.0001)     ;
(PID.TID 0000.0001)  -----------------------------------
(PID.TID 0000.0001)  tracer number :   64
(PID.TID 0000.0001) PTRACERS_names = /* Tracer short name */
(PID.TID 0000.0001)               'c47'
(PID.TID 0000.0001)     ;
(PID.TID 0000.0001) PTRACERS_long_names = /* Tracer long name */
(PID.TID 0000.0001)               ''
(PID.TID 0000.0001)     ;
(PID.TID 0000.0001) PTRACERS_ioLabel = /* tracer IO Label */
(PID.TID 0000.0001)               '64'
(PID.TID 0000.0001)     ;
(PID.TID 0000.0001) PTRACERS_advScheme = /* Advection Scheme */
(PID.TID 0000.0001)                      33
(PID.TID 0000.0001)     ;
(PID.TID 0000.0001) PTRACERS_SOM_Advection = /* tracer uses SOM advection scheme */
(PID.TID 0000.0001)                   F
(PID.TID 0000.0001)     ;
(PID.TID 0000.0001) PTRACERS_ImplVertAdv = /* implicit vert. advection flag */
(PID.TID 0000.0001)                   F
(PID.TID 0000.0001)     ;
(PID.TID 0000.0001) PTRACERS_diffKh = /* Laplacian Diffusivity */
(PID.TID 0000.0001)                 0.000000000000000E+00
(PID.TID 0000.0001)     ;
(PID.TID 0000.0001) PTRACERS_diffK4 = /* Biharmonic Diffusivity */
(PID.TID 0000.0001)                 0.000000000000000E+00
(PID.TID 0000.0001)     ;
(PID.TID 0000.0001) PTRACERS_diffKrNr = /* Vertical Diffusivity */
(PID.TID 0000.0001)    24 @  1.000000000000000E-06              /* K =  1: 24 */
(PID.TID 0000.0001)     ;
(PID.TID 0000.0001) PTRACERS_useGMRedi = /* apply GM-Redi */
(PID.TID 0000.0001)                   F
(PID.TID 0000.0001)     ;
(PID.TID 0000.0001) PTRACERS_useDWNSLP = /* apply DOWN-SLOPE Flow */
(PID.TID 0000.0001)                   F
(PID.TID 0000.0001)     ;
(PID.TID 0000.0001) PTRACERS_useKPP = /* apply KPP scheme */
(PID.TID 0000.0001)                   T
(PID.TID 0000.0001)     ;
(PID.TID 0000.0001) PTRACERS_ref = /* Reference vertical profile */
(PID.TID 0000.0001)    24 @  0.000000000000000E+00              /* K =  1: 24 */
(PID.TID 0000.0001)     ;
(PID.TID 0000.0001) PTRACERS_EvPrRn =/* tracer conc. in Evap. & Rain */
(PID.TID 0000.0001)                 1.234567000000000E+05
(PID.TID 0000.0001)     ;
(PID.TID 0000.0001)  -----------------------------------
(PID.TID 0000.0001)  tracer number :   65
(PID.TID 0000.0001) PTRACERS_names = /* Tracer short name */
(PID.TID 0000.0001)               'c48'
(PID.TID 0000.0001)     ;
(PID.TID 0000.0001) PTRACERS_long_names = /* Tracer long name */
(PID.TID 0000.0001)               ''
(PID.TID 0000.0001)     ;
(PID.TID 0000.0001) PTRACERS_ioLabel = /* tracer IO Label */
(PID.TID 0000.0001)               '65'
(PID.TID 0000.0001)     ;
(PID.TID 0000.0001) PTRACERS_advScheme = /* Advection Scheme */
(PID.TID 0000.0001)                      33
(PID.TID 0000.0001)     ;
(PID.TID 0000.0001) PTRACERS_SOM_Advection = /* tracer uses SOM advection scheme */
(PID.TID 0000.0001)                   F
(PID.TID 0000.0001)     ;
(PID.TID 0000.0001) PTRACERS_ImplVertAdv = /* implicit vert. advection flag */
(PID.TID 0000.0001)                   F
(PID.TID 0000.0001)     ;
(PID.TID 0000.0001) PTRACERS_diffKh = /* Laplacian Diffusivity */
(PID.TID 0000.0001)                 0.000000000000000E+00
(PID.TID 0000.0001)     ;
(PID.TID 0000.0001) PTRACERS_diffK4 = /* Biharmonic Diffusivity */
(PID.TID 0000.0001)                 0.000000000000000E+00
(PID.TID 0000.0001)     ;
(PID.TID 0000.0001) PTRACERS_diffKrNr = /* Vertical Diffusivity */
(PID.TID 0000.0001)    24 @  1.000000000000000E-06              /* K =  1: 24 */
(PID.TID 0000.0001)     ;
(PID.TID 0000.0001) PTRACERS_useGMRedi = /* apply GM-Redi */
(PID.TID 0000.0001)                   F
(PID.TID 0000.0001)     ;
(PID.TID 0000.0001) PTRACERS_useDWNSLP = /* apply DOWN-SLOPE Flow */
(PID.TID 0000.0001)                   F
(PID.TID 0000.0001)     ;
(PID.TID 0000.0001) PTRACERS_useKPP = /* apply KPP scheme */
(PID.TID 0000.0001)                   T
(PID.TID 0000.0001)     ;
(PID.TID 0000.0001) PTRACERS_ref = /* Reference vertical profile */
(PID.TID 0000.0001)    24 @  0.000000000000000E+00              /* K =  1: 24 */
(PID.TID 0000.0001)     ;
(PID.TID 0000.0001) PTRACERS_EvPrRn =/* tracer conc. in Evap. & Rain */
(PID.TID 0000.0001)                 1.234567000000000E+05
(PID.TID 0000.0001)     ;
(PID.TID 0000.0001)  -----------------------------------
(PID.TID 0000.0001)  tracer number :   66
(PID.TID 0000.0001) PTRACERS_names = /* Tracer short name */
(PID.TID 0000.0001)               'c49'
(PID.TID 0000.0001)     ;
(PID.TID 0000.0001) PTRACERS_long_names = /* Tracer long name */
(PID.TID 0000.0001)               ''
(PID.TID 0000.0001)     ;
(PID.TID 0000.0001) PTRACERS_ioLabel = /* tracer IO Label */
(PID.TID 0000.0001)               '66'
(PID.TID 0000.0001)     ;
(PID.TID 0000.0001) PTRACERS_advScheme = /* Advection Scheme */
(PID.TID 0000.0001)                      33
(PID.TID 0000.0001)     ;
(PID.TID 0000.0001) PTRACERS_SOM_Advection = /* tracer uses SOM advection scheme */
(PID.TID 0000.0001)                   F
(PID.TID 0000.0001)     ;
(PID.TID 0000.0001) PTRACERS_ImplVertAdv = /* implicit vert. advection flag */
(PID.TID 0000.0001)                   F
(PID.TID 0000.0001)     ;
(PID.TID 0000.0001) PTRACERS_diffKh = /* Laplacian Diffusivity */
(PID.TID 0000.0001)                 0.000000000000000E+00
(PID.TID 0000.0001)     ;
(PID.TID 0000.0001) PTRACERS_diffK4 = /* Biharmonic Diffusivity */
(PID.TID 0000.0001)                 0.000000000000000E+00
(PID.TID 0000.0001)     ;
(PID.TID 0000.0001) PTRACERS_diffKrNr = /* Vertical Diffusivity */
(PID.TID 0000.0001)    24 @  1.000000000000000E-06              /* K =  1: 24 */
(PID.TID 0000.0001)     ;
(PID.TID 0000.0001) PTRACERS_useGMRedi = /* apply GM-Redi */
(PID.TID 0000.0001)                   F
(PID.TID 0000.0001)     ;
(PID.TID 0000.0001) PTRACERS_useDWNSLP = /* apply DOWN-SLOPE Flow */
(PID.TID 0000.0001)                   F
(PID.TID 0000.0001)     ;
(PID.TID 0000.0001) PTRACERS_useKPP = /* apply KPP scheme */
(PID.TID 0000.0001)                   T
(PID.TID 0000.0001)     ;
(PID.TID 0000.0001) PTRACERS_ref = /* Reference vertical profile */
(PID.TID 0000.0001)    24 @  0.000000000000000E+00              /* K =  1: 24 */
(PID.TID 0000.0001)     ;
(PID.TID 0000.0001) PTRACERS_EvPrRn =/* tracer conc. in Evap. & Rain */
(PID.TID 0000.0001)                 1.234567000000000E+05
(PID.TID 0000.0001)     ;
(PID.TID 0000.0001)  -----------------------------------
(PID.TID 0000.0001)  tracer number :   67
(PID.TID 0000.0001) PTRACERS_names = /* Tracer short name */
(PID.TID 0000.0001)               'c50'
(PID.TID 0000.0001)     ;
(PID.TID 0000.0001) PTRACERS_long_names = /* Tracer long name */
(PID.TID 0000.0001)               ''
(PID.TID 0000.0001)     ;
(PID.TID 0000.0001) PTRACERS_ioLabel = /* tracer IO Label */
(PID.TID 0000.0001)               '67'
(PID.TID 0000.0001)     ;
(PID.TID 0000.0001) PTRACERS_advScheme = /* Advection Scheme */
(PID.TID 0000.0001)                      33
(PID.TID 0000.0001)     ;
(PID.TID 0000.0001) PTRACERS_SOM_Advection = /* tracer uses SOM advection scheme */
(PID.TID 0000.0001)                   F
(PID.TID 0000.0001)     ;
(PID.TID 0000.0001) PTRACERS_ImplVertAdv = /* implicit vert. advection flag */
(PID.TID 0000.0001)                   F
(PID.TID 0000.0001)     ;
(PID.TID 0000.0001) PTRACERS_diffKh = /* Laplacian Diffusivity */
(PID.TID 0000.0001)                 0.000000000000000E+00
(PID.TID 0000.0001)     ;
(PID.TID 0000.0001) PTRACERS_diffK4 = /* Biharmonic Diffusivity */
(PID.TID 0000.0001)                 0.000000000000000E+00
(PID.TID 0000.0001)     ;
(PID.TID 0000.0001) PTRACERS_diffKrNr = /* Vertical Diffusivity */
(PID.TID 0000.0001)    24 @  1.000000000000000E-06              /* K =  1: 24 */
(PID.TID 0000.0001)     ;
(PID.TID 0000.0001) PTRACERS_useGMRedi = /* apply GM-Redi */
(PID.TID 0000.0001)                   F
(PID.TID 0000.0001)     ;
(PID.TID 0000.0001) PTRACERS_useDWNSLP = /* apply DOWN-SLOPE Flow */
(PID.TID 0000.0001)                   F
(PID.TID 0000.0001)     ;
(PID.TID 0000.0001) PTRACERS_useKPP = /* apply KPP scheme */
(PID.TID 0000.0001)                   T
(PID.TID 0000.0001)     ;
(PID.TID 0000.0001) PTRACERS_ref = /* Reference vertical profile */
(PID.TID 0000.0001)    24 @  0.000000000000000E+00              /* K =  1: 24 */
(PID.TID 0000.0001)     ;
(PID.TID 0000.0001) PTRACERS_EvPrRn =/* tracer conc. in Evap. & Rain */
(PID.TID 0000.0001)                 1.234567000000000E+05
(PID.TID 0000.0001)     ;
(PID.TID 0000.0001)  -----------------------------------
(PID.TID 0000.0001)  tracer number :   68
(PID.TID 0000.0001) PTRACERS_names = /* Tracer short name */
(PID.TID 0000.0001)               'c51'
(PID.TID 0000.0001)     ;
(PID.TID 0000.0001) PTRACERS_long_names = /* Tracer long name */
(PID.TID 0000.0001)               ''
(PID.TID 0000.0001)     ;
(PID.TID 0000.0001) PTRACERS_ioLabel = /* tracer IO Label */
(PID.TID 0000.0001)               '68'
(PID.TID 0000.0001)     ;
(PID.TID 0000.0001) PTRACERS_advScheme = /* Advection Scheme */
(PID.TID 0000.0001)                      33
(PID.TID 0000.0001)     ;
(PID.TID 0000.0001) PTRACERS_SOM_Advection = /* tracer uses SOM advection scheme */
(PID.TID 0000.0001)                   F
(PID.TID 0000.0001)     ;
(PID.TID 0000.0001) PTRACERS_ImplVertAdv = /* implicit vert. advection flag */
(PID.TID 0000.0001)                   F
(PID.TID 0000.0001)     ;
(PID.TID 0000.0001) PTRACERS_diffKh = /* Laplacian Diffusivity */
(PID.TID 0000.0001)                 0.000000000000000E+00
(PID.TID 0000.0001)     ;
(PID.TID 0000.0001) PTRACERS_diffK4 = /* Biharmonic Diffusivity */
(PID.TID 0000.0001)                 0.000000000000000E+00
(PID.TID 0000.0001)     ;
(PID.TID 0000.0001) PTRACERS_diffKrNr = /* Vertical Diffusivity */
(PID.TID 0000.0001)    24 @  1.000000000000000E-06              /* K =  1: 24 */
(PID.TID 0000.0001)     ;
(PID.TID 0000.0001) PTRACERS_useGMRedi = /* apply GM-Redi */
(PID.TID 0000.0001)                   F
(PID.TID 0000.0001)     ;
(PID.TID 0000.0001) PTRACERS_useDWNSLP = /* apply DOWN-SLOPE Flow */
(PID.TID 0000.0001)                   F
(PID.TID 0000.0001)     ;
(PID.TID 0000.0001) PTRACERS_useKPP = /* apply KPP scheme */
(PID.TID 0000.0001)                   T
(PID.TID 0000.0001)     ;
(PID.TID 0000.0001) PTRACERS_ref = /* Reference vertical profile */
(PID.TID 0000.0001)    24 @  0.000000000000000E+00              /* K =  1: 24 */
(PID.TID 0000.0001)     ;
(PID.TID 0000.0001) PTRACERS_EvPrRn =/* tracer conc. in Evap. & Rain */
(PID.TID 0000.0001)                 1.234567000000000E+05
(PID.TID 0000.0001)     ;
(PID.TID 0000.0001)  -----------------------------------
(PID.TID 0000.0001)  tracer number :   69
(PID.TID 0000.0001) PTRACERS_names = /* Tracer short name */
(PID.TID 0000.0001)               'c52'
(PID.TID 0000.0001)     ;
(PID.TID 0000.0001) PTRACERS_long_names = /* Tracer long name */
(PID.TID 0000.0001)               ''
(PID.TID 0000.0001)     ;
(PID.TID 0000.0001) PTRACERS_ioLabel = /* tracer IO Label */
(PID.TID 0000.0001)               '69'
(PID.TID 0000.0001)     ;
(PID.TID 0000.0001) PTRACERS_advScheme = /* Advection Scheme */
(PID.TID 0000.0001)                      33
(PID.TID 0000.0001)     ;
(PID.TID 0000.0001) PTRACERS_SOM_Advection = /* tracer uses SOM advection scheme */
(PID.TID 0000.0001)                   F
(PID.TID 0000.0001)     ;
(PID.TID 0000.0001) PTRACERS_ImplVertAdv = /* implicit vert. advection flag */
(PID.TID 0000.0001)                   F
(PID.TID 0000.0001)     ;
(PID.TID 0000.0001) PTRACERS_diffKh = /* Laplacian Diffusivity */
(PID.TID 0000.0001)                 0.000000000000000E+00
(PID.TID 0000.0001)     ;
(PID.TID 0000.0001) PTRACERS_diffK4 = /* Biharmonic Diffusivity */
(PID.TID 0000.0001)                 0.000000000000000E+00
(PID.TID 0000.0001)     ;
(PID.TID 0000.0001) PTRACERS_diffKrNr = /* Vertical Diffusivity */
(PID.TID 0000.0001)    24 @  1.000000000000000E-06              /* K =  1: 24 */
(PID.TID 0000.0001)     ;
(PID.TID 0000.0001) PTRACERS_useGMRedi = /* apply GM-Redi */
(PID.TID 0000.0001)                   F
(PID.TID 0000.0001)     ;
(PID.TID 0000.0001) PTRACERS_useDWNSLP = /* apply DOWN-SLOPE Flow */
(PID.TID 0000.0001)                   F
(PID.TID 0000.0001)     ;
(PID.TID 0000.0001) PTRACERS_useKPP = /* apply KPP scheme */
(PID.TID 0000.0001)                   T
(PID.TID 0000.0001)     ;
(PID.TID 0000.0001) PTRACERS_ref = /* Reference vertical profile */
(PID.TID 0000.0001)    24 @  0.000000000000000E+00              /* K =  1: 24 */
(PID.TID 0000.0001)     ;
(PID.TID 0000.0001) PTRACERS_EvPrRn =/* tracer conc. in Evap. & Rain */
(PID.TID 0000.0001)                 1.234567000000000E+05
(PID.TID 0000.0001)     ;
(PID.TID 0000.0001)  -----------------------------------
(PID.TID 0000.0001)  tracer number :   70
(PID.TID 0000.0001) PTRACERS_names = /* Tracer short name */
(PID.TID 0000.0001)               'c53'
(PID.TID 0000.0001)     ;
(PID.TID 0000.0001) PTRACERS_long_names = /* Tracer long name */
(PID.TID 0000.0001)               ''
(PID.TID 0000.0001)     ;
(PID.TID 0000.0001) PTRACERS_ioLabel = /* tracer IO Label */
(PID.TID 0000.0001)               '70'
(PID.TID 0000.0001)     ;
(PID.TID 0000.0001) PTRACERS_advScheme = /* Advection Scheme */
(PID.TID 0000.0001)                      33
(PID.TID 0000.0001)     ;
(PID.TID 0000.0001) PTRACERS_SOM_Advection = /* tracer uses SOM advection scheme */
(PID.TID 0000.0001)                   F
(PID.TID 0000.0001)     ;
(PID.TID 0000.0001) PTRACERS_ImplVertAdv = /* implicit vert. advection flag */
(PID.TID 0000.0001)                   F
(PID.TID 0000.0001)     ;
(PID.TID 0000.0001) PTRACERS_diffKh = /* Laplacian Diffusivity */
(PID.TID 0000.0001)                 0.000000000000000E+00
(PID.TID 0000.0001)     ;
(PID.TID 0000.0001) PTRACERS_diffK4 = /* Biharmonic Diffusivity */
(PID.TID 0000.0001)                 0.000000000000000E+00
(PID.TID 0000.0001)     ;
(PID.TID 0000.0001) PTRACERS_diffKrNr = /* Vertical Diffusivity */
(PID.TID 0000.0001)    24 @  1.000000000000000E-06              /* K =  1: 24 */
(PID.TID 0000.0001)     ;
(PID.TID 0000.0001) PTRACERS_useGMRedi = /* apply GM-Redi */
(PID.TID 0000.0001)                   F
(PID.TID 0000.0001)     ;
(PID.TID 0000.0001) PTRACERS_useDWNSLP = /* apply DOWN-SLOPE Flow */
(PID.TID 0000.0001)                   F
(PID.TID 0000.0001)     ;
(PID.TID 0000.0001) PTRACERS_useKPP = /* apply KPP scheme */
(PID.TID 0000.0001)                   T
(PID.TID 0000.0001)     ;
(PID.TID 0000.0001) PTRACERS_ref = /* Reference vertical profile */
(PID.TID 0000.0001)    24 @  0.000000000000000E+00              /* K =  1: 24 */
(PID.TID 0000.0001)     ;
(PID.TID 0000.0001) PTRACERS_EvPrRn =/* tracer conc. in Evap. & Rain */
(PID.TID 0000.0001)                 1.234567000000000E+05
(PID.TID 0000.0001)     ;
(PID.TID 0000.0001)  -----------------------------------
(PID.TID 0000.0001)  tracer number :   71
(PID.TID 0000.0001) PTRACERS_names = /* Tracer short name */
(PID.TID 0000.0001)               'c54'
(PID.TID 0000.0001)     ;
(PID.TID 0000.0001) PTRACERS_long_names = /* Tracer long name */
(PID.TID 0000.0001)               ''
(PID.TID 0000.0001)     ;
(PID.TID 0000.0001) PTRACERS_ioLabel = /* tracer IO Label */
(PID.TID 0000.0001)               '71'
(PID.TID 0000.0001)     ;
(PID.TID 0000.0001) PTRACERS_advScheme = /* Advection Scheme */
(PID.TID 0000.0001)                      33
(PID.TID 0000.0001)     ;
(PID.TID 0000.0001) PTRACERS_SOM_Advection = /* tracer uses SOM advection scheme */
(PID.TID 0000.0001)                   F
(PID.TID 0000.0001)     ;
(PID.TID 0000.0001) PTRACERS_ImplVertAdv = /* implicit vert. advection flag */
(PID.TID 0000.0001)                   F
(PID.TID 0000.0001)     ;
(PID.TID 0000.0001) PTRACERS_diffKh = /* Laplacian Diffusivity */
(PID.TID 0000.0001)                 0.000000000000000E+00
(PID.TID 0000.0001)     ;
(PID.TID 0000.0001) PTRACERS_diffK4 = /* Biharmonic Diffusivity */
(PID.TID 0000.0001)                 0.000000000000000E+00
(PID.TID 0000.0001)     ;
(PID.TID 0000.0001) PTRACERS_diffKrNr = /* Vertical Diffusivity */
(PID.TID 0000.0001)    24 @  1.000000000000000E-06              /* K =  1: 24 */
(PID.TID 0000.0001)     ;
(PID.TID 0000.0001) PTRACERS_useGMRedi = /* apply GM-Redi */
(PID.TID 0000.0001)                   F
(PID.TID 0000.0001)     ;
(PID.TID 0000.0001) PTRACERS_useDWNSLP = /* apply DOWN-SLOPE Flow */
(PID.TID 0000.0001)                   F
(PID.TID 0000.0001)     ;
(PID.TID 0000.0001) PTRACERS_useKPP = /* apply KPP scheme */
(PID.TID 0000.0001)                   T
(PID.TID 0000.0001)     ;
(PID.TID 0000.0001) PTRACERS_ref = /* Reference vertical profile */
(PID.TID 0000.0001)    24 @  0.000000000000000E+00              /* K =  1: 24 */
(PID.TID 0000.0001)     ;
(PID.TID 0000.0001) PTRACERS_EvPrRn =/* tracer conc. in Evap. & Rain */
(PID.TID 0000.0001)                 1.234567000000000E+05
(PID.TID 0000.0001)     ;
(PID.TID 0000.0001)  -----------------------------------
(PID.TID 0000.0001)  tracer number :   72
(PID.TID 0000.0001) PTRACERS_names = /* Tracer short name */
(PID.TID 0000.0001)               'c55'
(PID.TID 0000.0001)     ;
(PID.TID 0000.0001) PTRACERS_long_names = /* Tracer long name */
(PID.TID 0000.0001)               ''
(PID.TID 0000.0001)     ;
(PID.TID 0000.0001) PTRACERS_ioLabel = /* tracer IO Label */
(PID.TID 0000.0001)               '72'
(PID.TID 0000.0001)     ;
(PID.TID 0000.0001) PTRACERS_advScheme = /* Advection Scheme */
(PID.TID 0000.0001)                      33
(PID.TID 0000.0001)     ;
(PID.TID 0000.0001) PTRACERS_SOM_Advection = /* tracer uses SOM advection scheme */
(PID.TID 0000.0001)                   F
(PID.TID 0000.0001)     ;
(PID.TID 0000.0001) PTRACERS_ImplVertAdv = /* implicit vert. advection flag */
(PID.TID 0000.0001)                   F
(PID.TID 0000.0001)     ;
(PID.TID 0000.0001) PTRACERS_diffKh = /* Laplacian Diffusivity */
(PID.TID 0000.0001)                 0.000000000000000E+00
(PID.TID 0000.0001)     ;
(PID.TID 0000.0001) PTRACERS_diffK4 = /* Biharmonic Diffusivity */
(PID.TID 0000.0001)                 0.000000000000000E+00
(PID.TID 0000.0001)     ;
(PID.TID 0000.0001) PTRACERS_diffKrNr = /* Vertical Diffusivity */
(PID.TID 0000.0001)    24 @  1.000000000000000E-06              /* K =  1: 24 */
(PID.TID 0000.0001)     ;
(PID.TID 0000.0001) PTRACERS_useGMRedi = /* apply GM-Redi */
(PID.TID 0000.0001)                   F
(PID.TID 0000.0001)     ;
(PID.TID 0000.0001) PTRACERS_useDWNSLP = /* apply DOWN-SLOPE Flow */
(PID.TID 0000.0001)                   F
(PID.TID 0000.0001)     ;
(PID.TID 0000.0001) PTRACERS_useKPP = /* apply KPP scheme */
(PID.TID 0000.0001)                   T
(PID.TID 0000.0001)     ;
(PID.TID 0000.0001) PTRACERS_ref = /* Reference vertical profile */
(PID.TID 0000.0001)    24 @  0.000000000000000E+00              /* K =  1: 24 */
(PID.TID 0000.0001)     ;
(PID.TID 0000.0001) PTRACERS_EvPrRn =/* tracer conc. in Evap. & Rain */
(PID.TID 0000.0001)                 1.234567000000000E+05
(PID.TID 0000.0001)     ;
(PID.TID 0000.0001)  -----------------------------------
(PID.TID 0000.0001)  tracer number :   73
(PID.TID 0000.0001) PTRACERS_names = /* Tracer short name */
(PID.TID 0000.0001)               'c56'
(PID.TID 0000.0001)     ;
(PID.TID 0000.0001) PTRACERS_long_names = /* Tracer long name */
(PID.TID 0000.0001)               ''
(PID.TID 0000.0001)     ;
(PID.TID 0000.0001) PTRACERS_ioLabel = /* tracer IO Label */
(PID.TID 0000.0001)               '73'
(PID.TID 0000.0001)     ;
(PID.TID 0000.0001) PTRACERS_advScheme = /* Advection Scheme */
(PID.TID 0000.0001)                      33
(PID.TID 0000.0001)     ;
(PID.TID 0000.0001) PTRACERS_SOM_Advection = /* tracer uses SOM advection scheme */
(PID.TID 0000.0001)                   F
(PID.TID 0000.0001)     ;
(PID.TID 0000.0001) PTRACERS_ImplVertAdv = /* implicit vert. advection flag */
(PID.TID 0000.0001)                   F
(PID.TID 0000.0001)     ;
(PID.TID 0000.0001) PTRACERS_diffKh = /* Laplacian Diffusivity */
(PID.TID 0000.0001)                 0.000000000000000E+00
(PID.TID 0000.0001)     ;
(PID.TID 0000.0001) PTRACERS_diffK4 = /* Biharmonic Diffusivity */
(PID.TID 0000.0001)                 0.000000000000000E+00
(PID.TID 0000.0001)     ;
(PID.TID 0000.0001) PTRACERS_diffKrNr = /* Vertical Diffusivity */
(PID.TID 0000.0001)    24 @  1.000000000000000E-06              /* K =  1: 24 */
(PID.TID 0000.0001)     ;
(PID.TID 0000.0001) PTRACERS_useGMRedi = /* apply GM-Redi */
(PID.TID 0000.0001)                   F
(PID.TID 0000.0001)     ;
(PID.TID 0000.0001) PTRACERS_useDWNSLP = /* apply DOWN-SLOPE Flow */
(PID.TID 0000.0001)                   F
(PID.TID 0000.0001)     ;
(PID.TID 0000.0001) PTRACERS_useKPP = /* apply KPP scheme */
(PID.TID 0000.0001)                   T
(PID.TID 0000.0001)     ;
(PID.TID 0000.0001) PTRACERS_ref = /* Reference vertical profile */
(PID.TID 0000.0001)    24 @  0.000000000000000E+00              /* K =  1: 24 */
(PID.TID 0000.0001)     ;
(PID.TID 0000.0001) PTRACERS_EvPrRn =/* tracer conc. in Evap. & Rain */
(PID.TID 0000.0001)                 1.234567000000000E+05
(PID.TID 0000.0001)     ;
(PID.TID 0000.0001)  -----------------------------------
(PID.TID 0000.0001)  tracer number :   74
(PID.TID 0000.0001) PTRACERS_names = /* Tracer short name */
(PID.TID 0000.0001)               'c57'
(PID.TID 0000.0001)     ;
(PID.TID 0000.0001) PTRACERS_long_names = /* Tracer long name */
(PID.TID 0000.0001)               ''
(PID.TID 0000.0001)     ;
(PID.TID 0000.0001) PTRACERS_ioLabel = /* tracer IO Label */
(PID.TID 0000.0001)               '74'
(PID.TID 0000.0001)     ;
(PID.TID 0000.0001) PTRACERS_advScheme = /* Advection Scheme */
(PID.TID 0000.0001)                      33
(PID.TID 0000.0001)     ;
(PID.TID 0000.0001) PTRACERS_SOM_Advection = /* tracer uses SOM advection scheme */
(PID.TID 0000.0001)                   F
(PID.TID 0000.0001)     ;
(PID.TID 0000.0001) PTRACERS_ImplVertAdv = /* implicit vert. advection flag */
(PID.TID 0000.0001)                   F
(PID.TID 0000.0001)     ;
(PID.TID 0000.0001) PTRACERS_diffKh = /* Laplacian Diffusivity */
(PID.TID 0000.0001)                 0.000000000000000E+00
(PID.TID 0000.0001)     ;
(PID.TID 0000.0001) PTRACERS_diffK4 = /* Biharmonic Diffusivity */
(PID.TID 0000.0001)                 0.000000000000000E+00
(PID.TID 0000.0001)     ;
(PID.TID 0000.0001) PTRACERS_diffKrNr = /* Vertical Diffusivity */
(PID.TID 0000.0001)    24 @  1.000000000000000E-06              /* K =  1: 24 */
(PID.TID 0000.0001)     ;
(PID.TID 0000.0001) PTRACERS_useGMRedi = /* apply GM-Redi */
(PID.TID 0000.0001)                   F
(PID.TID 0000.0001)     ;
(PID.TID 0000.0001) PTRACERS_useDWNSLP = /* apply DOWN-SLOPE Flow */
(PID.TID 0000.0001)                   F
(PID.TID 0000.0001)     ;
(PID.TID 0000.0001) PTRACERS_useKPP = /* apply KPP scheme */
(PID.TID 0000.0001)                   T
(PID.TID 0000.0001)     ;
(PID.TID 0000.0001) PTRACERS_ref = /* Reference vertical profile */
(PID.TID 0000.0001)    24 @  0.000000000000000E+00              /* K =  1: 24 */
(PID.TID 0000.0001)     ;
(PID.TID 0000.0001) PTRACERS_EvPrRn =/* tracer conc. in Evap. & Rain */
(PID.TID 0000.0001)                 1.234567000000000E+05
(PID.TID 0000.0001)     ;
(PID.TID 0000.0001)  -----------------------------------
(PID.TID 0000.0001)  tracer number :   75
(PID.TID 0000.0001) PTRACERS_names = /* Tracer short name */
(PID.TID 0000.0001)               'c58'
(PID.TID 0000.0001)     ;
(PID.TID 0000.0001) PTRACERS_long_names = /* Tracer long name */
(PID.TID 0000.0001)               ''
(PID.TID 0000.0001)     ;
(PID.TID 0000.0001) PTRACERS_ioLabel = /* tracer IO Label */
(PID.TID 0000.0001)               '75'
(PID.TID 0000.0001)     ;
(PID.TID 0000.0001) PTRACERS_advScheme = /* Advection Scheme */
(PID.TID 0000.0001)                      33
(PID.TID 0000.0001)     ;
(PID.TID 0000.0001) PTRACERS_SOM_Advection = /* tracer uses SOM advection scheme */
(PID.TID 0000.0001)                   F
(PID.TID 0000.0001)     ;
(PID.TID 0000.0001) PTRACERS_ImplVertAdv = /* implicit vert. advection flag */
(PID.TID 0000.0001)                   F
(PID.TID 0000.0001)     ;
(PID.TID 0000.0001) PTRACERS_diffKh = /* Laplacian Diffusivity */
(PID.TID 0000.0001)                 0.000000000000000E+00
(PID.TID 0000.0001)     ;
(PID.TID 0000.0001) PTRACERS_diffK4 = /* Biharmonic Diffusivity */
(PID.TID 0000.0001)                 0.000000000000000E+00
(PID.TID 0000.0001)     ;
(PID.TID 0000.0001) PTRACERS_diffKrNr = /* Vertical Diffusivity */
(PID.TID 0000.0001)    24 @  1.000000000000000E-06              /* K =  1: 24 */
(PID.TID 0000.0001)     ;
(PID.TID 0000.0001) PTRACERS_useGMRedi = /* apply GM-Redi */
(PID.TID 0000.0001)                   F
(PID.TID 0000.0001)     ;
(PID.TID 0000.0001) PTRACERS_useDWNSLP = /* apply DOWN-SLOPE Flow */
(PID.TID 0000.0001)                   F
(PID.TID 0000.0001)     ;
(PID.TID 0000.0001) PTRACERS_useKPP = /* apply KPP scheme */
(PID.TID 0000.0001)                   T
(PID.TID 0000.0001)     ;
(PID.TID 0000.0001) PTRACERS_ref = /* Reference vertical profile */
(PID.TID 0000.0001)    24 @  0.000000000000000E+00              /* K =  1: 24 */
(PID.TID 0000.0001)     ;
(PID.TID 0000.0001) PTRACERS_EvPrRn =/* tracer conc. in Evap. & Rain */
(PID.TID 0000.0001)                 1.234567000000000E+05
(PID.TID 0000.0001)     ;
(PID.TID 0000.0001)  -----------------------------------
(PID.TID 0000.0001)  tracer number :   76
(PID.TID 0000.0001) PTRACERS_names = /* Tracer short name */
(PID.TID 0000.0001)               'c59'
(PID.TID 0000.0001)     ;
(PID.TID 0000.0001) PTRACERS_long_names = /* Tracer long name */
(PID.TID 0000.0001)               ''
(PID.TID 0000.0001)     ;
(PID.TID 0000.0001) PTRACERS_ioLabel = /* tracer IO Label */
(PID.TID 0000.0001)               '76'
(PID.TID 0000.0001)     ;
(PID.TID 0000.0001) PTRACERS_advScheme = /* Advection Scheme */
(PID.TID 0000.0001)                      33
(PID.TID 0000.0001)     ;
(PID.TID 0000.0001) PTRACERS_SOM_Advection = /* tracer uses SOM advection scheme */
(PID.TID 0000.0001)                   F
(PID.TID 0000.0001)     ;
(PID.TID 0000.0001) PTRACERS_ImplVertAdv = /* implicit vert. advection flag */
(PID.TID 0000.0001)                   F
(PID.TID 0000.0001)     ;
(PID.TID 0000.0001) PTRACERS_diffKh = /* Laplacian Diffusivity */
(PID.TID 0000.0001)                 0.000000000000000E+00
(PID.TID 0000.0001)     ;
(PID.TID 0000.0001) PTRACERS_diffK4 = /* Biharmonic Diffusivity */
(PID.TID 0000.0001)                 0.000000000000000E+00
(PID.TID 0000.0001)     ;
(PID.TID 0000.0001) PTRACERS_diffKrNr = /* Vertical Diffusivity */
(PID.TID 0000.0001)    24 @  1.000000000000000E-06              /* K =  1: 24 */
(PID.TID 0000.0001)     ;
(PID.TID 0000.0001) PTRACERS_useGMRedi = /* apply GM-Redi */
(PID.TID 0000.0001)                   F
(PID.TID 0000.0001)     ;
(PID.TID 0000.0001) PTRACERS_useDWNSLP = /* apply DOWN-SLOPE Flow */
(PID.TID 0000.0001)                   F
(PID.TID 0000.0001)     ;
(PID.TID 0000.0001) PTRACERS_useKPP = /* apply KPP scheme */
(PID.TID 0000.0001)                   T
(PID.TID 0000.0001)     ;
(PID.TID 0000.0001) PTRACERS_ref = /* Reference vertical profile */
(PID.TID 0000.0001)    24 @  0.000000000000000E+00              /* K =  1: 24 */
(PID.TID 0000.0001)     ;
(PID.TID 0000.0001) PTRACERS_EvPrRn =/* tracer conc. in Evap. & Rain */
(PID.TID 0000.0001)                 1.234567000000000E+05
(PID.TID 0000.0001)     ;
(PID.TID 0000.0001)  -----------------------------------
(PID.TID 0000.0001)  tracer number :   77
(PID.TID 0000.0001) PTRACERS_names = /* Tracer short name */
(PID.TID 0000.0001)               'c60'
(PID.TID 0000.0001)     ;
(PID.TID 0000.0001) PTRACERS_long_names = /* Tracer long name */
(PID.TID 0000.0001)               ''
(PID.TID 0000.0001)     ;
(PID.TID 0000.0001) PTRACERS_ioLabel = /* tracer IO Label */
(PID.TID 0000.0001)               '77'
(PID.TID 0000.0001)     ;
(PID.TID 0000.0001) PTRACERS_advScheme = /* Advection Scheme */
(PID.TID 0000.0001)                      33
(PID.TID 0000.0001)     ;
(PID.TID 0000.0001) PTRACERS_SOM_Advection = /* tracer uses SOM advection scheme */
(PID.TID 0000.0001)                   F
(PID.TID 0000.0001)     ;
(PID.TID 0000.0001) PTRACERS_ImplVertAdv = /* implicit vert. advection flag */
(PID.TID 0000.0001)                   F
(PID.TID 0000.0001)     ;
(PID.TID 0000.0001) PTRACERS_diffKh = /* Laplacian Diffusivity */
(PID.TID 0000.0001)                 0.000000000000000E+00
(PID.TID 0000.0001)     ;
(PID.TID 0000.0001) PTRACERS_diffK4 = /* Biharmonic Diffusivity */
(PID.TID 0000.0001)                 0.000000000000000E+00
(PID.TID 0000.0001)     ;
(PID.TID 0000.0001) PTRACERS_diffKrNr = /* Vertical Diffusivity */
(PID.TID 0000.0001)    24 @  1.000000000000000E-06              /* K =  1: 24 */
(PID.TID 0000.0001)     ;
(PID.TID 0000.0001) PTRACERS_useGMRedi = /* apply GM-Redi */
(PID.TID 0000.0001)                   F
(PID.TID 0000.0001)     ;
(PID.TID 0000.0001) PTRACERS_useDWNSLP = /* apply DOWN-SLOPE Flow */
(PID.TID 0000.0001)                   F
(PID.TID 0000.0001)     ;
(PID.TID 0000.0001) PTRACERS_useKPP = /* apply KPP scheme */
(PID.TID 0000.0001)                   T
(PID.TID 0000.0001)     ;
(PID.TID 0000.0001) PTRACERS_ref = /* Reference vertical profile */
(PID.TID 0000.0001)    24 @  0.000000000000000E+00              /* K =  1: 24 */
(PID.TID 0000.0001)     ;
(PID.TID 0000.0001) PTRACERS_EvPrRn =/* tracer conc. in Evap. & Rain */
(PID.TID 0000.0001)                 1.234567000000000E+05
(PID.TID 0000.0001)     ;
(PID.TID 0000.0001)  -----------------------------------
(PID.TID 0000.0001)  tracer number :   78
(PID.TID 0000.0001) PTRACERS_names = /* Tracer short name */
(PID.TID 0000.0001)               'c61'
(PID.TID 0000.0001)     ;
(PID.TID 0000.0001) PTRACERS_long_names = /* Tracer long name */
(PID.TID 0000.0001)               ''
(PID.TID 0000.0001)     ;
(PID.TID 0000.0001) PTRACERS_ioLabel = /* tracer IO Label */
(PID.TID 0000.0001)               '78'
(PID.TID 0000.0001)     ;
(PID.TID 0000.0001) PTRACERS_advScheme = /* Advection Scheme */
(PID.TID 0000.0001)                      33
(PID.TID 0000.0001)     ;
(PID.TID 0000.0001) PTRACERS_SOM_Advection = /* tracer uses SOM advection scheme */
(PID.TID 0000.0001)                   F
(PID.TID 0000.0001)     ;
(PID.TID 0000.0001) PTRACERS_ImplVertAdv = /* implicit vert. advection flag */
(PID.TID 0000.0001)                   F
(PID.TID 0000.0001)     ;
(PID.TID 0000.0001) PTRACERS_diffKh = /* Laplacian Diffusivity */
(PID.TID 0000.0001)                 0.000000000000000E+00
(PID.TID 0000.0001)     ;
(PID.TID 0000.0001) PTRACERS_diffK4 = /* Biharmonic Diffusivity */
(PID.TID 0000.0001)                 0.000000000000000E+00
(PID.TID 0000.0001)     ;
(PID.TID 0000.0001) PTRACERS_diffKrNr = /* Vertical Diffusivity */
(PID.TID 0000.0001)    24 @  1.000000000000000E-06              /* K =  1: 24 */
(PID.TID 0000.0001)     ;
(PID.TID 0000.0001) PTRACERS_useGMRedi = /* apply GM-Redi */
(PID.TID 0000.0001)                   F
(PID.TID 0000.0001)     ;
(PID.TID 0000.0001) PTRACERS_useDWNSLP = /* apply DOWN-SLOPE Flow */
(PID.TID 0000.0001)                   F
(PID.TID 0000.0001)     ;
(PID.TID 0000.0001) PTRACERS_useKPP = /* apply KPP scheme */
(PID.TID 0000.0001)                   T
(PID.TID 0000.0001)     ;
(PID.TID 0000.0001) PTRACERS_ref = /* Reference vertical profile */
(PID.TID 0000.0001)    24 @  0.000000000000000E+00              /* K =  1: 24 */
(PID.TID 0000.0001)     ;
(PID.TID 0000.0001) PTRACERS_EvPrRn =/* tracer conc. in Evap. & Rain */
(PID.TID 0000.0001)                 1.234567000000000E+05
(PID.TID 0000.0001)     ;
(PID.TID 0000.0001)  -----------------------------------
(PID.TID 0000.0001)  tracer number :   79
(PID.TID 0000.0001) PTRACERS_names = /* Tracer short name */
(PID.TID 0000.0001)               'c62'
(PID.TID 0000.0001)     ;
(PID.TID 0000.0001) PTRACERS_long_names = /* Tracer long name */
(PID.TID 0000.0001)               ''
(PID.TID 0000.0001)     ;
(PID.TID 0000.0001) PTRACERS_ioLabel = /* tracer IO Label */
(PID.TID 0000.0001)               '79'
(PID.TID 0000.0001)     ;
(PID.TID 0000.0001) PTRACERS_advScheme = /* Advection Scheme */
(PID.TID 0000.0001)                      33
(PID.TID 0000.0001)     ;
(PID.TID 0000.0001) PTRACERS_SOM_Advection = /* tracer uses SOM advection scheme */
(PID.TID 0000.0001)                   F
(PID.TID 0000.0001)     ;
(PID.TID 0000.0001) PTRACERS_ImplVertAdv = /* implicit vert. advection flag */
(PID.TID 0000.0001)                   F
(PID.TID 0000.0001)     ;
(PID.TID 0000.0001) PTRACERS_diffKh = /* Laplacian Diffusivity */
(PID.TID 0000.0001)                 0.000000000000000E+00
(PID.TID 0000.0001)     ;
(PID.TID 0000.0001) PTRACERS_diffK4 = /* Biharmonic Diffusivity */
(PID.TID 0000.0001)                 0.000000000000000E+00
(PID.TID 0000.0001)     ;
(PID.TID 0000.0001) PTRACERS_diffKrNr = /* Vertical Diffusivity */
(PID.TID 0000.0001)    24 @  1.000000000000000E-06              /* K =  1: 24 */
(PID.TID 0000.0001)     ;
(PID.TID 0000.0001) PTRACERS_useGMRedi = /* apply GM-Redi */
(PID.TID 0000.0001)                   F
(PID.TID 0000.0001)     ;
(PID.TID 0000.0001) PTRACERS_useDWNSLP = /* apply DOWN-SLOPE Flow */
(PID.TID 0000.0001)                   F
(PID.TID 0000.0001)     ;
(PID.TID 0000.0001) PTRACERS_useKPP = /* apply KPP scheme */
(PID.TID 0000.0001)                   T
(PID.TID 0000.0001)     ;
(PID.TID 0000.0001) PTRACERS_ref = /* Reference vertical profile */
(PID.TID 0000.0001)    24 @  0.000000000000000E+00              /* K =  1: 24 */
(PID.TID 0000.0001)     ;
(PID.TID 0000.0001) PTRACERS_EvPrRn =/* tracer conc. in Evap. & Rain */
(PID.TID 0000.0001)                 1.234567000000000E+05
(PID.TID 0000.0001)     ;
(PID.TID 0000.0001)  -----------------------------------
(PID.TID 0000.0001)  tracer number :   80
(PID.TID 0000.0001) PTRACERS_names = /* Tracer short name */
(PID.TID 0000.0001)               'c63'
(PID.TID 0000.0001)     ;
(PID.TID 0000.0001) PTRACERS_long_names = /* Tracer long name */
(PID.TID 0000.0001)               ''
(PID.TID 0000.0001)     ;
(PID.TID 0000.0001) PTRACERS_ioLabel = /* tracer IO Label */
(PID.TID 0000.0001)               '80'
(PID.TID 0000.0001)     ;
(PID.TID 0000.0001) PTRACERS_advScheme = /* Advection Scheme */
(PID.TID 0000.0001)                      33
(PID.TID 0000.0001)     ;
(PID.TID 0000.0001) PTRACERS_SOM_Advection = /* tracer uses SOM advection scheme */
(PID.TID 0000.0001)                   F
(PID.TID 0000.0001)     ;
(PID.TID 0000.0001) PTRACERS_ImplVertAdv = /* implicit vert. advection flag */
(PID.TID 0000.0001)                   F
(PID.TID 0000.0001)     ;
(PID.TID 0000.0001) PTRACERS_diffKh = /* Laplacian Diffusivity */
(PID.TID 0000.0001)                 0.000000000000000E+00
(PID.TID 0000.0001)     ;
(PID.TID 0000.0001) PTRACERS_diffK4 = /* Biharmonic Diffusivity */
(PID.TID 0000.0001)                 0.000000000000000E+00
(PID.TID 0000.0001)     ;
(PID.TID 0000.0001) PTRACERS_diffKrNr = /* Vertical Diffusivity */
(PID.TID 0000.0001)    24 @  1.000000000000000E-06              /* K =  1: 24 */
(PID.TID 0000.0001)     ;
(PID.TID 0000.0001) PTRACERS_useGMRedi = /* apply GM-Redi */
(PID.TID 0000.0001)                   F
(PID.TID 0000.0001)     ;
(PID.TID 0000.0001) PTRACERS_useDWNSLP = /* apply DOWN-SLOPE Flow */
(PID.TID 0000.0001)                   F
(PID.TID 0000.0001)     ;
(PID.TID 0000.0001) PTRACERS_useKPP = /* apply KPP scheme */
(PID.TID 0000.0001)                   T
(PID.TID 0000.0001)     ;
(PID.TID 0000.0001) PTRACERS_ref = /* Reference vertical profile */
(PID.TID 0000.0001)    24 @  0.000000000000000E+00              /* K =  1: 24 */
(PID.TID 0000.0001)     ;
(PID.TID 0000.0001) PTRACERS_EvPrRn =/* tracer conc. in Evap. & Rain */
(PID.TID 0000.0001)                 1.234567000000000E+05
(PID.TID 0000.0001)     ;
(PID.TID 0000.0001)  -----------------------------------
(PID.TID 0000.0001)  tracer number :   81
(PID.TID 0000.0001) PTRACERS_names = /* Tracer short name */
(PID.TID 0000.0001)               'c64'
(PID.TID 0000.0001)     ;
(PID.TID 0000.0001) PTRACERS_long_names = /* Tracer long name */
(PID.TID 0000.0001)               ''
(PID.TID 0000.0001)     ;
(PID.TID 0000.0001) PTRACERS_ioLabel = /* tracer IO Label */
(PID.TID 0000.0001)               '81'
(PID.TID 0000.0001)     ;
(PID.TID 0000.0001) PTRACERS_advScheme = /* Advection Scheme */
(PID.TID 0000.0001)                      33
(PID.TID 0000.0001)     ;
(PID.TID 0000.0001) PTRACERS_SOM_Advection = /* tracer uses SOM advection scheme */
(PID.TID 0000.0001)                   F
(PID.TID 0000.0001)     ;
(PID.TID 0000.0001) PTRACERS_ImplVertAdv = /* implicit vert. advection flag */
(PID.TID 0000.0001)                   F
(PID.TID 0000.0001)     ;
(PID.TID 0000.0001) PTRACERS_diffKh = /* Laplacian Diffusivity */
(PID.TID 0000.0001)                 0.000000000000000E+00
(PID.TID 0000.0001)     ;
(PID.TID 0000.0001) PTRACERS_diffK4 = /* Biharmonic Diffusivity */
(PID.TID 0000.0001)                 0.000000000000000E+00
(PID.TID 0000.0001)     ;
(PID.TID 0000.0001) PTRACERS_diffKrNr = /* Vertical Diffusivity */
(PID.TID 0000.0001)    24 @  1.000000000000000E-06              /* K =  1: 24 */
(PID.TID 0000.0001)     ;
(PID.TID 0000.0001) PTRACERS_useGMRedi = /* apply GM-Redi */
(PID.TID 0000.0001)                   F
(PID.TID 0000.0001)     ;
(PID.TID 0000.0001) PTRACERS_useDWNSLP = /* apply DOWN-SLOPE Flow */
(PID.TID 0000.0001)                   F
(PID.TID 0000.0001)     ;
(PID.TID 0000.0001) PTRACERS_useKPP = /* apply KPP scheme */
(PID.TID 0000.0001)                   T
(PID.TID 0000.0001)     ;
(PID.TID 0000.0001) PTRACERS_ref = /* Reference vertical profile */
(PID.TID 0000.0001)    24 @  0.000000000000000E+00              /* K =  1: 24 */
(PID.TID 0000.0001)     ;
(PID.TID 0000.0001) PTRACERS_EvPrRn =/* tracer conc. in Evap. & Rain */
(PID.TID 0000.0001)                 1.234567000000000E+05
(PID.TID 0000.0001)     ;
(PID.TID 0000.0001)  -----------------------------------
(PID.TID 0000.0001)  tracer number :   82
(PID.TID 0000.0001) PTRACERS_names = /* Tracer short name */
(PID.TID 0000.0001)               'c65'
(PID.TID 0000.0001)     ;
(PID.TID 0000.0001) PTRACERS_long_names = /* Tracer long name */
(PID.TID 0000.0001)               ''
(PID.TID 0000.0001)     ;
(PID.TID 0000.0001) PTRACERS_ioLabel = /* tracer IO Label */
(PID.TID 0000.0001)               '82'
(PID.TID 0000.0001)     ;
(PID.TID 0000.0001) PTRACERS_advScheme = /* Advection Scheme */
(PID.TID 0000.0001)                      33
(PID.TID 0000.0001)     ;
(PID.TID 0000.0001) PTRACERS_SOM_Advection = /* tracer uses SOM advection scheme */
(PID.TID 0000.0001)                   F
(PID.TID 0000.0001)     ;
(PID.TID 0000.0001) PTRACERS_ImplVertAdv = /* implicit vert. advection flag */
(PID.TID 0000.0001)                   F
(PID.TID 0000.0001)     ;
(PID.TID 0000.0001) PTRACERS_diffKh = /* Laplacian Diffusivity */
(PID.TID 0000.0001)                 0.000000000000000E+00
(PID.TID 0000.0001)     ;
(PID.TID 0000.0001) PTRACERS_diffK4 = /* Biharmonic Diffusivity */
(PID.TID 0000.0001)                 0.000000000000000E+00
(PID.TID 0000.0001)     ;
(PID.TID 0000.0001) PTRACERS_diffKrNr = /* Vertical Diffusivity */
(PID.TID 0000.0001)    24 @  1.000000000000000E-06              /* K =  1: 24 */
(PID.TID 0000.0001)     ;
(PID.TID 0000.0001) PTRACERS_useGMRedi = /* apply GM-Redi */
(PID.TID 0000.0001)                   F
(PID.TID 0000.0001)     ;
(PID.TID 0000.0001) PTRACERS_useDWNSLP = /* apply DOWN-SLOPE Flow */
(PID.TID 0000.0001)                   F
(PID.TID 0000.0001)     ;
(PID.TID 0000.0001) PTRACERS_useKPP = /* apply KPP scheme */
(PID.TID 0000.0001)                   T
(PID.TID 0000.0001)     ;
(PID.TID 0000.0001) PTRACERS_ref = /* Reference vertical profile */
(PID.TID 0000.0001)    24 @  0.000000000000000E+00              /* K =  1: 24 */
(PID.TID 0000.0001)     ;
(PID.TID 0000.0001) PTRACERS_EvPrRn =/* tracer conc. in Evap. & Rain */
(PID.TID 0000.0001)                 1.234567000000000E+05
(PID.TID 0000.0001)     ;
(PID.TID 0000.0001)  -----------------------------------
(PID.TID 0000.0001)  tracer number :   83
(PID.TID 0000.0001) PTRACERS_names = /* Tracer short name */
(PID.TID 0000.0001)               'c66'
(PID.TID 0000.0001)     ;
(PID.TID 0000.0001) PTRACERS_long_names = /* Tracer long name */
(PID.TID 0000.0001)               ''
(PID.TID 0000.0001)     ;
(PID.TID 0000.0001) PTRACERS_ioLabel = /* tracer IO Label */
(PID.TID 0000.0001)               '83'
(PID.TID 0000.0001)     ;
(PID.TID 0000.0001) PTRACERS_advScheme = /* Advection Scheme */
(PID.TID 0000.0001)                      33
(PID.TID 0000.0001)     ;
(PID.TID 0000.0001) PTRACERS_SOM_Advection = /* tracer uses SOM advection scheme */
(PID.TID 0000.0001)                   F
(PID.TID 0000.0001)     ;
(PID.TID 0000.0001) PTRACERS_ImplVertAdv = /* implicit vert. advection flag */
(PID.TID 0000.0001)                   F
(PID.TID 0000.0001)     ;
(PID.TID 0000.0001) PTRACERS_diffKh = /* Laplacian Diffusivity */
(PID.TID 0000.0001)                 0.000000000000000E+00
(PID.TID 0000.0001)     ;
(PID.TID 0000.0001) PTRACERS_diffK4 = /* Biharmonic Diffusivity */
(PID.TID 0000.0001)                 0.000000000000000E+00
(PID.TID 0000.0001)     ;
(PID.TID 0000.0001) PTRACERS_diffKrNr = /* Vertical Diffusivity */
(PID.TID 0000.0001)    24 @  1.000000000000000E-06              /* K =  1: 24 */
(PID.TID 0000.0001)     ;
(PID.TID 0000.0001) PTRACERS_useGMRedi = /* apply GM-Redi */
(PID.TID 0000.0001)                   F
(PID.TID 0000.0001)     ;
(PID.TID 0000.0001) PTRACERS_useDWNSLP = /* apply DOWN-SLOPE Flow */
(PID.TID 0000.0001)                   F
(PID.TID 0000.0001)     ;
(PID.TID 0000.0001) PTRACERS_useKPP = /* apply KPP scheme */
(PID.TID 0000.0001)                   T
(PID.TID 0000.0001)     ;
(PID.TID 0000.0001) PTRACERS_ref = /* Reference vertical profile */
(PID.TID 0000.0001)    24 @  0.000000000000000E+00              /* K =  1: 24 */
(PID.TID 0000.0001)     ;
(PID.TID 0000.0001) PTRACERS_EvPrRn =/* tracer conc. in Evap. & Rain */
(PID.TID 0000.0001)                 1.234567000000000E+05
(PID.TID 0000.0001)     ;
(PID.TID 0000.0001)  -----------------------------------
(PID.TID 0000.0001)  tracer number :   84
(PID.TID 0000.0001) PTRACERS_names = /* Tracer short name */
(PID.TID 0000.0001)               'c67'
(PID.TID 0000.0001)     ;
(PID.TID 0000.0001) PTRACERS_long_names = /* Tracer long name */
(PID.TID 0000.0001)               ''
(PID.TID 0000.0001)     ;
(PID.TID 0000.0001) PTRACERS_ioLabel = /* tracer IO Label */
(PID.TID 0000.0001)               '84'
(PID.TID 0000.0001)     ;
(PID.TID 0000.0001) PTRACERS_advScheme = /* Advection Scheme */
(PID.TID 0000.0001)                      33
(PID.TID 0000.0001)     ;
(PID.TID 0000.0001) PTRACERS_SOM_Advection = /* tracer uses SOM advection scheme */
(PID.TID 0000.0001)                   F
(PID.TID 0000.0001)     ;
(PID.TID 0000.0001) PTRACERS_ImplVertAdv = /* implicit vert. advection flag */
(PID.TID 0000.0001)                   F
(PID.TID 0000.0001)     ;
(PID.TID 0000.0001) PTRACERS_diffKh = /* Laplacian Diffusivity */
(PID.TID 0000.0001)                 0.000000000000000E+00
(PID.TID 0000.0001)     ;
(PID.TID 0000.0001) PTRACERS_diffK4 = /* Biharmonic Diffusivity */
(PID.TID 0000.0001)                 0.000000000000000E+00
(PID.TID 0000.0001)     ;
(PID.TID 0000.0001) PTRACERS_diffKrNr = /* Vertical Diffusivity */
(PID.TID 0000.0001)    24 @  1.000000000000000E-06              /* K =  1: 24 */
(PID.TID 0000.0001)     ;
(PID.TID 0000.0001) PTRACERS_useGMRedi = /* apply GM-Redi */
(PID.TID 0000.0001)                   F
(PID.TID 0000.0001)     ;
(PID.TID 0000.0001) PTRACERS_useDWNSLP = /* apply DOWN-SLOPE Flow */
(PID.TID 0000.0001)                   F
(PID.TID 0000.0001)     ;
(PID.TID 0000.0001) PTRACERS_useKPP = /* apply KPP scheme */
(PID.TID 0000.0001)                   T
(PID.TID 0000.0001)     ;
(PID.TID 0000.0001) PTRACERS_ref = /* Reference vertical profile */
(PID.TID 0000.0001)    24 @  0.000000000000000E+00              /* K =  1: 24 */
(PID.TID 0000.0001)     ;
(PID.TID 0000.0001) PTRACERS_EvPrRn =/* tracer conc. in Evap. & Rain */
(PID.TID 0000.0001)                 1.234567000000000E+05
(PID.TID 0000.0001)     ;
(PID.TID 0000.0001)  -----------------------------------
(PID.TID 0000.0001)  tracer number :   85
(PID.TID 0000.0001) PTRACERS_names = /* Tracer short name */
(PID.TID 0000.0001)               'c68'
(PID.TID 0000.0001)     ;
(PID.TID 0000.0001) PTRACERS_long_names = /* Tracer long name */
(PID.TID 0000.0001)               ''
(PID.TID 0000.0001)     ;
(PID.TID 0000.0001) PTRACERS_ioLabel = /* tracer IO Label */
(PID.TID 0000.0001)               '85'
(PID.TID 0000.0001)     ;
(PID.TID 0000.0001) PTRACERS_advScheme = /* Advection Scheme */
(PID.TID 0000.0001)                      33
(PID.TID 0000.0001)     ;
(PID.TID 0000.0001) PTRACERS_SOM_Advection = /* tracer uses SOM advection scheme */
(PID.TID 0000.0001)                   F
(PID.TID 0000.0001)     ;
(PID.TID 0000.0001) PTRACERS_ImplVertAdv = /* implicit vert. advection flag */
(PID.TID 0000.0001)                   F
(PID.TID 0000.0001)     ;
(PID.TID 0000.0001) PTRACERS_diffKh = /* Laplacian Diffusivity */
(PID.TID 0000.0001)                 0.000000000000000E+00
(PID.TID 0000.0001)     ;
(PID.TID 0000.0001) PTRACERS_diffK4 = /* Biharmonic Diffusivity */
(PID.TID 0000.0001)                 0.000000000000000E+00
(PID.TID 0000.0001)     ;
(PID.TID 0000.0001) PTRACERS_diffKrNr = /* Vertical Diffusivity */
(PID.TID 0000.0001)    24 @  1.000000000000000E-06              /* K =  1: 24 */
(PID.TID 0000.0001)     ;
(PID.TID 0000.0001) PTRACERS_useGMRedi = /* apply GM-Redi */
(PID.TID 0000.0001)                   F
(PID.TID 0000.0001)     ;
(PID.TID 0000.0001) PTRACERS_useDWNSLP = /* apply DOWN-SLOPE Flow */
(PID.TID 0000.0001)                   F
(PID.TID 0000.0001)     ;
(PID.TID 0000.0001) PTRACERS_useKPP = /* apply KPP scheme */
(PID.TID 0000.0001)                   T
(PID.TID 0000.0001)     ;
(PID.TID 0000.0001) PTRACERS_ref = /* Reference vertical profile */
(PID.TID 0000.0001)    24 @  0.000000000000000E+00              /* K =  1: 24 */
(PID.TID 0000.0001)     ;
(PID.TID 0000.0001) PTRACERS_EvPrRn =/* tracer conc. in Evap. & Rain */
(PID.TID 0000.0001)                 1.234567000000000E+05
(PID.TID 0000.0001)     ;
(PID.TID 0000.0001)  -----------------------------------
(PID.TID 0000.0001)  tracer number :   86
(PID.TID 0000.0001) PTRACERS_names = /* Tracer short name */
(PID.TID 0000.0001)               'c69'
(PID.TID 0000.0001)     ;
(PID.TID 0000.0001) PTRACERS_long_names = /* Tracer long name */
(PID.TID 0000.0001)               ''
(PID.TID 0000.0001)     ;
(PID.TID 0000.0001) PTRACERS_ioLabel = /* tracer IO Label */
(PID.TID 0000.0001)               '86'
(PID.TID 0000.0001)     ;
(PID.TID 0000.0001) PTRACERS_advScheme = /* Advection Scheme */
(PID.TID 0000.0001)                      33
(PID.TID 0000.0001)     ;
(PID.TID 0000.0001) PTRACERS_SOM_Advection = /* tracer uses SOM advection scheme */
(PID.TID 0000.0001)                   F
(PID.TID 0000.0001)     ;
(PID.TID 0000.0001) PTRACERS_ImplVertAdv = /* implicit vert. advection flag */
(PID.TID 0000.0001)                   F
(PID.TID 0000.0001)     ;
(PID.TID 0000.0001) PTRACERS_diffKh = /* Laplacian Diffusivity */
(PID.TID 0000.0001)                 0.000000000000000E+00
(PID.TID 0000.0001)     ;
(PID.TID 0000.0001) PTRACERS_diffK4 = /* Biharmonic Diffusivity */
(PID.TID 0000.0001)                 0.000000000000000E+00
(PID.TID 0000.0001)     ;
(PID.TID 0000.0001) PTRACERS_diffKrNr = /* Vertical Diffusivity */
(PID.TID 0000.0001)    24 @  1.000000000000000E-06              /* K =  1: 24 */
(PID.TID 0000.0001)     ;
(PID.TID 0000.0001) PTRACERS_useGMRedi = /* apply GM-Redi */
(PID.TID 0000.0001)                   F
(PID.TID 0000.0001)     ;
(PID.TID 0000.0001) PTRACERS_useDWNSLP = /* apply DOWN-SLOPE Flow */
(PID.TID 0000.0001)                   F
(PID.TID 0000.0001)     ;
(PID.TID 0000.0001) PTRACERS_useKPP = /* apply KPP scheme */
(PID.TID 0000.0001)                   T
(PID.TID 0000.0001)     ;
(PID.TID 0000.0001) PTRACERS_ref = /* Reference vertical profile */
(PID.TID 0000.0001)    24 @  0.000000000000000E+00              /* K =  1: 24 */
(PID.TID 0000.0001)     ;
(PID.TID 0000.0001) PTRACERS_EvPrRn =/* tracer conc. in Evap. & Rain */
(PID.TID 0000.0001)                 1.234567000000000E+05
(PID.TID 0000.0001)     ;
(PID.TID 0000.0001)  -----------------------------------
(PID.TID 0000.0001)  tracer number :   87
(PID.TID 0000.0001) PTRACERS_names = /* Tracer short name */
(PID.TID 0000.0001)               'c70'
(PID.TID 0000.0001)     ;
(PID.TID 0000.0001) PTRACERS_long_names = /* Tracer long name */
(PID.TID 0000.0001)               ''
(PID.TID 0000.0001)     ;
(PID.TID 0000.0001) PTRACERS_ioLabel = /* tracer IO Label */
(PID.TID 0000.0001)               '87'
(PID.TID 0000.0001)     ;
(PID.TID 0000.0001) PTRACERS_advScheme = /* Advection Scheme */
(PID.TID 0000.0001)                      33
(PID.TID 0000.0001)     ;
(PID.TID 0000.0001) PTRACERS_SOM_Advection = /* tracer uses SOM advection scheme */
(PID.TID 0000.0001)                   F
(PID.TID 0000.0001)     ;
(PID.TID 0000.0001) PTRACERS_ImplVertAdv = /* implicit vert. advection flag */
(PID.TID 0000.0001)                   F
(PID.TID 0000.0001)     ;
(PID.TID 0000.0001) PTRACERS_diffKh = /* Laplacian Diffusivity */
(PID.TID 0000.0001)                 0.000000000000000E+00
(PID.TID 0000.0001)     ;
(PID.TID 0000.0001) PTRACERS_diffK4 = /* Biharmonic Diffusivity */
(PID.TID 0000.0001)                 0.000000000000000E+00
(PID.TID 0000.0001)     ;
(PID.TID 0000.0001) PTRACERS_diffKrNr = /* Vertical Diffusivity */
(PID.TID 0000.0001)    24 @  1.000000000000000E-06              /* K =  1: 24 */
(PID.TID 0000.0001)     ;
(PID.TID 0000.0001) PTRACERS_useGMRedi = /* apply GM-Redi */
(PID.TID 0000.0001)                   F
(PID.TID 0000.0001)     ;
(PID.TID 0000.0001) PTRACERS_useDWNSLP = /* apply DOWN-SLOPE Flow */
(PID.TID 0000.0001)                   F
(PID.TID 0000.0001)     ;
(PID.TID 0000.0001) PTRACERS_useKPP = /* apply KPP scheme */
(PID.TID 0000.0001)                   T
(PID.TID 0000.0001)     ;
(PID.TID 0000.0001) PTRACERS_ref = /* Reference vertical profile */
(PID.TID 0000.0001)    24 @  0.000000000000000E+00              /* K =  1: 24 */
(PID.TID 0000.0001)     ;
(PID.TID 0000.0001) PTRACERS_EvPrRn =/* tracer conc. in Evap. & Rain */
(PID.TID 0000.0001)                 1.234567000000000E+05
(PID.TID 0000.0001)     ;
(PID.TID 0000.0001)  -----------------------------------
(PID.TID 0000.0001)  tracer number :   88
(PID.TID 0000.0001) PTRACERS_names = /* Tracer short name */
(PID.TID 0000.0001)               'c71'
(PID.TID 0000.0001)     ;
(PID.TID 0000.0001) PTRACERS_long_names = /* Tracer long name */
(PID.TID 0000.0001)               ''
(PID.TID 0000.0001)     ;
(PID.TID 0000.0001) PTRACERS_ioLabel = /* tracer IO Label */
(PID.TID 0000.0001)               '88'
(PID.TID 0000.0001)     ;
(PID.TID 0000.0001) PTRACERS_advScheme = /* Advection Scheme */
(PID.TID 0000.0001)                      33
(PID.TID 0000.0001)     ;
(PID.TID 0000.0001) PTRACERS_SOM_Advection = /* tracer uses SOM advection scheme */
(PID.TID 0000.0001)                   F
(PID.TID 0000.0001)     ;
(PID.TID 0000.0001) PTRACERS_ImplVertAdv = /* implicit vert. advection flag */
(PID.TID 0000.0001)                   F
(PID.TID 0000.0001)     ;
(PID.TID 0000.0001) PTRACERS_diffKh = /* Laplacian Diffusivity */
(PID.TID 0000.0001)                 0.000000000000000E+00
(PID.TID 0000.0001)     ;
(PID.TID 0000.0001) PTRACERS_diffK4 = /* Biharmonic Diffusivity */
(PID.TID 0000.0001)                 0.000000000000000E+00
(PID.TID 0000.0001)     ;
(PID.TID 0000.0001) PTRACERS_diffKrNr = /* Vertical Diffusivity */
(PID.TID 0000.0001)    24 @  1.000000000000000E-06              /* K =  1: 24 */
(PID.TID 0000.0001)     ;
(PID.TID 0000.0001) PTRACERS_useGMRedi = /* apply GM-Redi */
(PID.TID 0000.0001)                   F
(PID.TID 0000.0001)     ;
(PID.TID 0000.0001) PTRACERS_useDWNSLP = /* apply DOWN-SLOPE Flow */
(PID.TID 0000.0001)                   F
(PID.TID 0000.0001)     ;
(PID.TID 0000.0001) PTRACERS_useKPP = /* apply KPP scheme */
(PID.TID 0000.0001)                   T
(PID.TID 0000.0001)     ;
(PID.TID 0000.0001) PTRACERS_ref = /* Reference vertical profile */
(PID.TID 0000.0001)    24 @  0.000000000000000E+00              /* K =  1: 24 */
(PID.TID 0000.0001)     ;
(PID.TID 0000.0001) PTRACERS_EvPrRn =/* tracer conc. in Evap. & Rain */
(PID.TID 0000.0001)                 1.234567000000000E+05
(PID.TID 0000.0001)     ;
(PID.TID 0000.0001)  -----------------------------------
(PID.TID 0000.0001)  tracer number :   89
(PID.TID 0000.0001) PTRACERS_names = /* Tracer short name */
(PID.TID 0000.0001)               'c72'
(PID.TID 0000.0001)     ;
(PID.TID 0000.0001) PTRACERS_long_names = /* Tracer long name */
(PID.TID 0000.0001)               ''
(PID.TID 0000.0001)     ;
(PID.TID 0000.0001) PTRACERS_ioLabel = /* tracer IO Label */
(PID.TID 0000.0001)               '89'
(PID.TID 0000.0001)     ;
(PID.TID 0000.0001) PTRACERS_advScheme = /* Advection Scheme */
(PID.TID 0000.0001)                      33
(PID.TID 0000.0001)     ;
(PID.TID 0000.0001) PTRACERS_SOM_Advection = /* tracer uses SOM advection scheme */
(PID.TID 0000.0001)                   F
(PID.TID 0000.0001)     ;
(PID.TID 0000.0001) PTRACERS_ImplVertAdv = /* implicit vert. advection flag */
(PID.TID 0000.0001)                   F
(PID.TID 0000.0001)     ;
(PID.TID 0000.0001) PTRACERS_diffKh = /* Laplacian Diffusivity */
(PID.TID 0000.0001)                 0.000000000000000E+00
(PID.TID 0000.0001)     ;
(PID.TID 0000.0001) PTRACERS_diffK4 = /* Biharmonic Diffusivity */
(PID.TID 0000.0001)                 0.000000000000000E+00
(PID.TID 0000.0001)     ;
(PID.TID 0000.0001) PTRACERS_diffKrNr = /* Vertical Diffusivity */
(PID.TID 0000.0001)    24 @  1.000000000000000E-06              /* K =  1: 24 */
(PID.TID 0000.0001)     ;
(PID.TID 0000.0001) PTRACERS_useGMRedi = /* apply GM-Redi */
(PID.TID 0000.0001)                   F
(PID.TID 0000.0001)     ;
(PID.TID 0000.0001) PTRACERS_useDWNSLP = /* apply DOWN-SLOPE Flow */
(PID.TID 0000.0001)                   F
(PID.TID 0000.0001)     ;
(PID.TID 0000.0001) PTRACERS_useKPP = /* apply KPP scheme */
(PID.TID 0000.0001)                   T
(PID.TID 0000.0001)     ;
(PID.TID 0000.0001) PTRACERS_ref = /* Reference vertical profile */
(PID.TID 0000.0001)    24 @  0.000000000000000E+00              /* K =  1: 24 */
(PID.TID 0000.0001)     ;
(PID.TID 0000.0001) PTRACERS_EvPrRn =/* tracer conc. in Evap. & Rain */
(PID.TID 0000.0001)                 1.234567000000000E+05
(PID.TID 0000.0001)     ;
(PID.TID 0000.0001)  -----------------------------------
(PID.TID 0000.0001)  tracer number :   90
(PID.TID 0000.0001) PTRACERS_names = /* Tracer short name */
(PID.TID 0000.0001)               'c73'
(PID.TID 0000.0001)     ;
(PID.TID 0000.0001) PTRACERS_long_names = /* Tracer long name */
(PID.TID 0000.0001)               ''
(PID.TID 0000.0001)     ;
(PID.TID 0000.0001) PTRACERS_ioLabel = /* tracer IO Label */
(PID.TID 0000.0001)               '90'
(PID.TID 0000.0001)     ;
(PID.TID 0000.0001) PTRACERS_advScheme = /* Advection Scheme */
(PID.TID 0000.0001)                      33
(PID.TID 0000.0001)     ;
(PID.TID 0000.0001) PTRACERS_SOM_Advection = /* tracer uses SOM advection scheme */
(PID.TID 0000.0001)                   F
(PID.TID 0000.0001)     ;
(PID.TID 0000.0001) PTRACERS_ImplVertAdv = /* implicit vert. advection flag */
(PID.TID 0000.0001)                   F
(PID.TID 0000.0001)     ;
(PID.TID 0000.0001) PTRACERS_diffKh = /* Laplacian Diffusivity */
(PID.TID 0000.0001)                 0.000000000000000E+00
(PID.TID 0000.0001)     ;
(PID.TID 0000.0001) PTRACERS_diffK4 = /* Biharmonic Diffusivity */
(PID.TID 0000.0001)                 0.000000000000000E+00
(PID.TID 0000.0001)     ;
(PID.TID 0000.0001) PTRACERS_diffKrNr = /* Vertical Diffusivity */
(PID.TID 0000.0001)    24 @  1.000000000000000E-06              /* K =  1: 24 */
(PID.TID 0000.0001)     ;
(PID.TID 0000.0001) PTRACERS_useGMRedi = /* apply GM-Redi */
(PID.TID 0000.0001)                   F
(PID.TID 0000.0001)     ;
(PID.TID 0000.0001) PTRACERS_useDWNSLP = /* apply DOWN-SLOPE Flow */
(PID.TID 0000.0001)                   F
(PID.TID 0000.0001)     ;
(PID.TID 0000.0001) PTRACERS_useKPP = /* apply KPP scheme */
(PID.TID 0000.0001)                   T
(PID.TID 0000.0001)     ;
(PID.TID 0000.0001) PTRACERS_ref = /* Reference vertical profile */
(PID.TID 0000.0001)    24 @  0.000000000000000E+00              /* K =  1: 24 */
(PID.TID 0000.0001)     ;
(PID.TID 0000.0001) PTRACERS_EvPrRn =/* tracer conc. in Evap. & Rain */
(PID.TID 0000.0001)                 1.234567000000000E+05
(PID.TID 0000.0001)     ;
(PID.TID 0000.0001)  -----------------------------------
(PID.TID 0000.0001)  tracer number :   91
(PID.TID 0000.0001) PTRACERS_names = /* Tracer short name */
(PID.TID 0000.0001)               'c74'
(PID.TID 0000.0001)     ;
(PID.TID 0000.0001) PTRACERS_long_names = /* Tracer long name */
(PID.TID 0000.0001)               ''
(PID.TID 0000.0001)     ;
(PID.TID 0000.0001) PTRACERS_ioLabel = /* tracer IO Label */
(PID.TID 0000.0001)               '91'
(PID.TID 0000.0001)     ;
(PID.TID 0000.0001) PTRACERS_advScheme = /* Advection Scheme */
(PID.TID 0000.0001)                      33
(PID.TID 0000.0001)     ;
(PID.TID 0000.0001) PTRACERS_SOM_Advection = /* tracer uses SOM advection scheme */
(PID.TID 0000.0001)                   F
(PID.TID 0000.0001)     ;
(PID.TID 0000.0001) PTRACERS_ImplVertAdv = /* implicit vert. advection flag */
(PID.TID 0000.0001)                   F
(PID.TID 0000.0001)     ;
(PID.TID 0000.0001) PTRACERS_diffKh = /* Laplacian Diffusivity */
(PID.TID 0000.0001)                 0.000000000000000E+00
(PID.TID 0000.0001)     ;
(PID.TID 0000.0001) PTRACERS_diffK4 = /* Biharmonic Diffusivity */
(PID.TID 0000.0001)                 0.000000000000000E+00
(PID.TID 0000.0001)     ;
(PID.TID 0000.0001) PTRACERS_diffKrNr = /* Vertical Diffusivity */
(PID.TID 0000.0001)    24 @  1.000000000000000E-06              /* K =  1: 24 */
(PID.TID 0000.0001)     ;
(PID.TID 0000.0001) PTRACERS_useGMRedi = /* apply GM-Redi */
(PID.TID 0000.0001)                   F
(PID.TID 0000.0001)     ;
(PID.TID 0000.0001) PTRACERS_useDWNSLP = /* apply DOWN-SLOPE Flow */
(PID.TID 0000.0001)                   F
(PID.TID 0000.0001)     ;
(PID.TID 0000.0001) PTRACERS_useKPP = /* apply KPP scheme */
(PID.TID 0000.0001)                   T
(PID.TID 0000.0001)     ;
(PID.TID 0000.0001) PTRACERS_ref = /* Reference vertical profile */
(PID.TID 0000.0001)    24 @  0.000000000000000E+00              /* K =  1: 24 */
(PID.TID 0000.0001)     ;
(PID.TID 0000.0001) PTRACERS_EvPrRn =/* tracer conc. in Evap. & Rain */
(PID.TID 0000.0001)                 1.234567000000000E+05
(PID.TID 0000.0001)     ;
(PID.TID 0000.0001)  -----------------------------------
(PID.TID 0000.0001)  tracer number :   92
(PID.TID 0000.0001) PTRACERS_names = /* Tracer short name */
(PID.TID 0000.0001)               'c75'
(PID.TID 0000.0001)     ;
(PID.TID 0000.0001) PTRACERS_long_names = /* Tracer long name */
(PID.TID 0000.0001)               ''
(PID.TID 0000.0001)     ;
(PID.TID 0000.0001) PTRACERS_ioLabel = /* tracer IO Label */
(PID.TID 0000.0001)               '92'
(PID.TID 0000.0001)     ;
(PID.TID 0000.0001) PTRACERS_advScheme = /* Advection Scheme */
(PID.TID 0000.0001)                      33
(PID.TID 0000.0001)     ;
(PID.TID 0000.0001) PTRACERS_SOM_Advection = /* tracer uses SOM advection scheme */
(PID.TID 0000.0001)                   F
(PID.TID 0000.0001)     ;
(PID.TID 0000.0001) PTRACERS_ImplVertAdv = /* implicit vert. advection flag */
(PID.TID 0000.0001)                   F
(PID.TID 0000.0001)     ;
(PID.TID 0000.0001) PTRACERS_diffKh = /* Laplacian Diffusivity */
(PID.TID 0000.0001)                 0.000000000000000E+00
(PID.TID 0000.0001)     ;
(PID.TID 0000.0001) PTRACERS_diffK4 = /* Biharmonic Diffusivity */
(PID.TID 0000.0001)                 0.000000000000000E+00
(PID.TID 0000.0001)     ;
(PID.TID 0000.0001) PTRACERS_diffKrNr = /* Vertical Diffusivity */
(PID.TID 0000.0001)    24 @  1.000000000000000E-06              /* K =  1: 24 */
(PID.TID 0000.0001)     ;
(PID.TID 0000.0001) PTRACERS_useGMRedi = /* apply GM-Redi */
(PID.TID 0000.0001)                   F
(PID.TID 0000.0001)     ;
(PID.TID 0000.0001) PTRACERS_useDWNSLP = /* apply DOWN-SLOPE Flow */
(PID.TID 0000.0001)                   F
(PID.TID 0000.0001)     ;
(PID.TID 0000.0001) PTRACERS_useKPP = /* apply KPP scheme */
(PID.TID 0000.0001)                   T
(PID.TID 0000.0001)     ;
(PID.TID 0000.0001) PTRACERS_ref = /* Reference vertical profile */
(PID.TID 0000.0001)    24 @  0.000000000000000E+00              /* K =  1: 24 */
(PID.TID 0000.0001)     ;
(PID.TID 0000.0001) PTRACERS_EvPrRn =/* tracer conc. in Evap. & Rain */
(PID.TID 0000.0001)                 1.234567000000000E+05
(PID.TID 0000.0001)     ;
(PID.TID 0000.0001)  -----------------------------------
(PID.TID 0000.0001)  tracer number :   93
(PID.TID 0000.0001) PTRACERS_names = /* Tracer short name */
(PID.TID 0000.0001)               'c76'
(PID.TID 0000.0001)     ;
(PID.TID 0000.0001) PTRACERS_long_names = /* Tracer long name */
(PID.TID 0000.0001)               ''
(PID.TID 0000.0001)     ;
(PID.TID 0000.0001) PTRACERS_ioLabel = /* tracer IO Label */
(PID.TID 0000.0001)               '93'
(PID.TID 0000.0001)     ;
(PID.TID 0000.0001) PTRACERS_advScheme = /* Advection Scheme */
(PID.TID 0000.0001)                      33
(PID.TID 0000.0001)     ;
(PID.TID 0000.0001) PTRACERS_SOM_Advection = /* tracer uses SOM advection scheme */
(PID.TID 0000.0001)                   F
(PID.TID 0000.0001)     ;
(PID.TID 0000.0001) PTRACERS_ImplVertAdv = /* implicit vert. advection flag */
(PID.TID 0000.0001)                   F
(PID.TID 0000.0001)     ;
(PID.TID 0000.0001) PTRACERS_diffKh = /* Laplacian Diffusivity */
(PID.TID 0000.0001)                 0.000000000000000E+00
(PID.TID 0000.0001)     ;
(PID.TID 0000.0001) PTRACERS_diffK4 = /* Biharmonic Diffusivity */
(PID.TID 0000.0001)                 0.000000000000000E+00
(PID.TID 0000.0001)     ;
(PID.TID 0000.0001) PTRACERS_diffKrNr = /* Vertical Diffusivity */
(PID.TID 0000.0001)    24 @  1.000000000000000E-06              /* K =  1: 24 */
(PID.TID 0000.0001)     ;
(PID.TID 0000.0001) PTRACERS_useGMRedi = /* apply GM-Redi */
(PID.TID 0000.0001)                   F
(PID.TID 0000.0001)     ;
(PID.TID 0000.0001) PTRACERS_useDWNSLP = /* apply DOWN-SLOPE Flow */
(PID.TID 0000.0001)                   F
(PID.TID 0000.0001)     ;
(PID.TID 0000.0001) PTRACERS_useKPP = /* apply KPP scheme */
(PID.TID 0000.0001)                   T
(PID.TID 0000.0001)     ;
(PID.TID 0000.0001) PTRACERS_ref = /* Reference vertical profile */
(PID.TID 0000.0001)    24 @  0.000000000000000E+00              /* K =  1: 24 */
(PID.TID 0000.0001)     ;
(PID.TID 0000.0001) PTRACERS_EvPrRn =/* tracer conc. in Evap. & Rain */
(PID.TID 0000.0001)                 1.234567000000000E+05
(PID.TID 0000.0001)     ;
(PID.TID 0000.0001)  -----------------------------------
(PID.TID 0000.0001)  tracer number :   94
(PID.TID 0000.0001) PTRACERS_names = /* Tracer short name */
(PID.TID 0000.0001)               'c77'
(PID.TID 0000.0001)     ;
(PID.TID 0000.0001) PTRACERS_long_names = /* Tracer long name */
(PID.TID 0000.0001)               ''
(PID.TID 0000.0001)     ;
(PID.TID 0000.0001) PTRACERS_ioLabel = /* tracer IO Label */
(PID.TID 0000.0001)               '94'
(PID.TID 0000.0001)     ;
(PID.TID 0000.0001) PTRACERS_advScheme = /* Advection Scheme */
(PID.TID 0000.0001)                      33
(PID.TID 0000.0001)     ;
(PID.TID 0000.0001) PTRACERS_SOM_Advection = /* tracer uses SOM advection scheme */
(PID.TID 0000.0001)                   F
(PID.TID 0000.0001)     ;
(PID.TID 0000.0001) PTRACERS_ImplVertAdv = /* implicit vert. advection flag */
(PID.TID 0000.0001)                   F
(PID.TID 0000.0001)     ;
(PID.TID 0000.0001) PTRACERS_diffKh = /* Laplacian Diffusivity */
(PID.TID 0000.0001)                 0.000000000000000E+00
(PID.TID 0000.0001)     ;
(PID.TID 0000.0001) PTRACERS_diffK4 = /* Biharmonic Diffusivity */
(PID.TID 0000.0001)                 0.000000000000000E+00
(PID.TID 0000.0001)     ;
(PID.TID 0000.0001) PTRACERS_diffKrNr = /* Vertical Diffusivity */
(PID.TID 0000.0001)    24 @  1.000000000000000E-06              /* K =  1: 24 */
(PID.TID 0000.0001)     ;
(PID.TID 0000.0001) PTRACERS_useGMRedi = /* apply GM-Redi */
(PID.TID 0000.0001)                   F
(PID.TID 0000.0001)     ;
(PID.TID 0000.0001) PTRACERS_useDWNSLP = /* apply DOWN-SLOPE Flow */
(PID.TID 0000.0001)                   F
(PID.TID 0000.0001)     ;
(PID.TID 0000.0001) PTRACERS_useKPP = /* apply KPP scheme */
(PID.TID 0000.0001)                   T
(PID.TID 0000.0001)     ;
(PID.TID 0000.0001) PTRACERS_ref = /* Reference vertical profile */
(PID.TID 0000.0001)    24 @  0.000000000000000E+00              /* K =  1: 24 */
(PID.TID 0000.0001)     ;
(PID.TID 0000.0001) PTRACERS_EvPrRn =/* tracer conc. in Evap. & Rain */
(PID.TID 0000.0001)                 1.234567000000000E+05
(PID.TID 0000.0001)     ;
(PID.TID 0000.0001)  -----------------------------------
(PID.TID 0000.0001)  tracer number :   95
(PID.TID 0000.0001) PTRACERS_names = /* Tracer short name */
(PID.TID 0000.0001)               'c78'
(PID.TID 0000.0001)     ;
(PID.TID 0000.0001) PTRACERS_long_names = /* Tracer long name */
(PID.TID 0000.0001)               ''
(PID.TID 0000.0001)     ;
(PID.TID 0000.0001) PTRACERS_ioLabel = /* tracer IO Label */
(PID.TID 0000.0001)               '95'
(PID.TID 0000.0001)     ;
(PID.TID 0000.0001) PTRACERS_advScheme = /* Advection Scheme */
(PID.TID 0000.0001)                      33
(PID.TID 0000.0001)     ;
(PID.TID 0000.0001) PTRACERS_SOM_Advection = /* tracer uses SOM advection scheme */
(PID.TID 0000.0001)                   F
(PID.TID 0000.0001)     ;
(PID.TID 0000.0001) PTRACERS_ImplVertAdv = /* implicit vert. advection flag */
(PID.TID 0000.0001)                   F
(PID.TID 0000.0001)     ;
(PID.TID 0000.0001) PTRACERS_diffKh = /* Laplacian Diffusivity */
(PID.TID 0000.0001)                 0.000000000000000E+00
(PID.TID 0000.0001)     ;
(PID.TID 0000.0001) PTRACERS_diffK4 = /* Biharmonic Diffusivity */
(PID.TID 0000.0001)                 0.000000000000000E+00
(PID.TID 0000.0001)     ;
(PID.TID 0000.0001) PTRACERS_diffKrNr = /* Vertical Diffusivity */
(PID.TID 0000.0001)    24 @  1.000000000000000E-06              /* K =  1: 24 */
(PID.TID 0000.0001)     ;
(PID.TID 0000.0001) PTRACERS_useGMRedi = /* apply GM-Redi */
(PID.TID 0000.0001)                   F
(PID.TID 0000.0001)     ;
(PID.TID 0000.0001) PTRACERS_useDWNSLP = /* apply DOWN-SLOPE Flow */
(PID.TID 0000.0001)                   F
(PID.TID 0000.0001)     ;
(PID.TID 0000.0001) PTRACERS_useKPP = /* apply KPP scheme */
(PID.TID 0000.0001)                   T
(PID.TID 0000.0001)     ;
(PID.TID 0000.0001) PTRACERS_ref = /* Reference vertical profile */
(PID.TID 0000.0001)    24 @  0.000000000000000E+00              /* K =  1: 24 */
(PID.TID 0000.0001)     ;
(PID.TID 0000.0001) PTRACERS_EvPrRn =/* tracer conc. in Evap. & Rain */
(PID.TID 0000.0001)                 1.234567000000000E+05
(PID.TID 0000.0001)     ;
(PID.TID 0000.0001)  -----------------------------------
(PID.TID 0000.0001)  tracer number :   96
(PID.TID 0000.0001) PTRACERS_names = /* Tracer short name */
(PID.TID 0000.0001)               'zc1'
(PID.TID 0000.0001)     ;
(PID.TID 0000.0001) PTRACERS_long_names = /* Tracer long name */
(PID.TID 0000.0001)               ''
(PID.TID 0000.0001)     ;
(PID.TID 0000.0001) PTRACERS_ioLabel = /* tracer IO Label */
(PID.TID 0000.0001)               '96'
(PID.TID 0000.0001)     ;
(PID.TID 0000.0001) PTRACERS_advScheme = /* Advection Scheme */
(PID.TID 0000.0001)                      33
(PID.TID 0000.0001)     ;
(PID.TID 0000.0001) PTRACERS_SOM_Advection = /* tracer uses SOM advection scheme */
(PID.TID 0000.0001)                   F
(PID.TID 0000.0001)     ;
(PID.TID 0000.0001) PTRACERS_ImplVertAdv = /* implicit vert. advection flag */
(PID.TID 0000.0001)                   F
(PID.TID 0000.0001)     ;
(PID.TID 0000.0001) PTRACERS_diffKh = /* Laplacian Diffusivity */
(PID.TID 0000.0001)                 0.000000000000000E+00
(PID.TID 0000.0001)     ;
(PID.TID 0000.0001) PTRACERS_diffK4 = /* Biharmonic Diffusivity */
(PID.TID 0000.0001)                 0.000000000000000E+00
(PID.TID 0000.0001)     ;
(PID.TID 0000.0001) PTRACERS_diffKrNr = /* Vertical Diffusivity */
(PID.TID 0000.0001)    24 @  1.000000000000000E-06              /* K =  1: 24 */
(PID.TID 0000.0001)     ;
(PID.TID 0000.0001) PTRACERS_useGMRedi = /* apply GM-Redi */
(PID.TID 0000.0001)                   F
(PID.TID 0000.0001)     ;
(PID.TID 0000.0001) PTRACERS_useDWNSLP = /* apply DOWN-SLOPE Flow */
(PID.TID 0000.0001)                   F
(PID.TID 0000.0001)     ;
(PID.TID 0000.0001) PTRACERS_useKPP = /* apply KPP scheme */
(PID.TID 0000.0001)                   T
(PID.TID 0000.0001)     ;
(PID.TID 0000.0001) PTRACERS_ref = /* Reference vertical profile */
(PID.TID 0000.0001)    24 @  0.000000000000000E+00              /* K =  1: 24 */
(PID.TID 0000.0001)     ;
(PID.TID 0000.0001) PTRACERS_EvPrRn =/* tracer conc. in Evap. & Rain */
(PID.TID 0000.0001)                 1.234567000000000E+05
(PID.TID 0000.0001)     ;
(PID.TID 0000.0001)  -----------------------------------
(PID.TID 0000.0001)  tracer number :   97
(PID.TID 0000.0001) PTRACERS_names = /* Tracer short name */
(PID.TID 0000.0001)               'zc2'
(PID.TID 0000.0001)     ;
(PID.TID 0000.0001) PTRACERS_long_names = /* Tracer long name */
(PID.TID 0000.0001)               ''
(PID.TID 0000.0001)     ;
(PID.TID 0000.0001) PTRACERS_ioLabel = /* tracer IO Label */
(PID.TID 0000.0001)               '97'
(PID.TID 0000.0001)     ;
(PID.TID 0000.0001) PTRACERS_advScheme = /* Advection Scheme */
(PID.TID 0000.0001)                      33
(PID.TID 0000.0001)     ;
(PID.TID 0000.0001) PTRACERS_SOM_Advection = /* tracer uses SOM advection scheme */
(PID.TID 0000.0001)                   F
(PID.TID 0000.0001)     ;
(PID.TID 0000.0001) PTRACERS_ImplVertAdv = /* implicit vert. advection flag */
(PID.TID 0000.0001)                   F
(PID.TID 0000.0001)     ;
(PID.TID 0000.0001) PTRACERS_diffKh = /* Laplacian Diffusivity */
(PID.TID 0000.0001)                 0.000000000000000E+00
(PID.TID 0000.0001)     ;
(PID.TID 0000.0001) PTRACERS_diffK4 = /* Biharmonic Diffusivity */
(PID.TID 0000.0001)                 0.000000000000000E+00
(PID.TID 0000.0001)     ;
(PID.TID 0000.0001) PTRACERS_diffKrNr = /* Vertical Diffusivity */
(PID.TID 0000.0001)    24 @  1.000000000000000E-06              /* K =  1: 24 */
(PID.TID 0000.0001)     ;
(PID.TID 0000.0001) PTRACERS_useGMRedi = /* apply GM-Redi */
(PID.TID 0000.0001)                   F
(PID.TID 0000.0001)     ;
(PID.TID 0000.0001) PTRACERS_useDWNSLP = /* apply DOWN-SLOPE Flow */
(PID.TID 0000.0001)                   F
(PID.TID 0000.0001)     ;
(PID.TID 0000.0001) PTRACERS_useKPP = /* apply KPP scheme */
(PID.TID 0000.0001)                   T
(PID.TID 0000.0001)     ;
(PID.TID 0000.0001) PTRACERS_ref = /* Reference vertical profile */
(PID.TID 0000.0001)    24 @  0.000000000000000E+00              /* K =  1: 24 */
(PID.TID 0000.0001)     ;
(PID.TID 0000.0001) PTRACERS_EvPrRn =/* tracer conc. in Evap. & Rain */
(PID.TID 0000.0001)                 1.234567000000000E+05
(PID.TID 0000.0001)     ;
(PID.TID 0000.0001)  -----------------------------------
(PID.TID 0000.0001) GCHEM_CHECK: #define ALLOW_GCHEM
(PID.TID 0000.0001) GUD_CHECK: #define ALLOW_GUD
(PID.TID 0000.0001) GUD_CHECK: iPtr gud   PTRACERS_names
(PID.TID 0000.0001) GUD_CHECK:    1 DIC      DIC
(PID.TID 0000.0001) GUD_CHECK:    2 NH4      NH4
(PID.TID 0000.0001) GUD_CHECK:    3 NO2      NO2
(PID.TID 0000.0001) GUD_CHECK:    4 NO3      NO3
(PID.TID 0000.0001) GUD_CHECK:    5 PO4      PO4
(PID.TID 0000.0001) GUD_CHECK:    6 SiO2     SiO2
(PID.TID 0000.0001) GUD_CHECK:    7 FeT      FeT
(PID.TID 0000.0001) GUD_CHECK:    8 DOC      DOC
(PID.TID 0000.0001) GUD_CHECK:    9 DON      DON
(PID.TID 0000.0001) GUD_CHECK:   10 DOP      DOP
(PID.TID 0000.0001) GUD_CHECK:   11 DOFe     DOFe
(PID.TID 0000.0001) GUD_CHECK:   12 POC      POC
(PID.TID 0000.0001) GUD_CHECK:   13 PON      PON
(PID.TID 0000.0001) GUD_CHECK:   14 POP      POP
(PID.TID 0000.0001) GUD_CHECK:   15 POSi     POSi
(PID.TID 0000.0001) GUD_CHECK:   16 POFe     POFe
(PID.TID 0000.0001) GUD_CHECK:   17 PIC      PIC
(PID.TID 0000.0001) GUD_CHECK:   18 c    (1) c01
(PID.TID 0000.0001) GUD_CHECK:   19 c    (2) c02
(PID.TID 0000.0001) GUD_CHECK:   20 c    (3) c03
(PID.TID 0000.0001) GUD_CHECK:   21 c    (4) c04
(PID.TID 0000.0001) GUD_CHECK:   22 c    (5) c05
(PID.TID 0000.0001) GUD_CHECK:   23 c    (6) c06
(PID.TID 0000.0001) GUD_CHECK:   24 c    (7) c07
(PID.TID 0000.0001) GUD_CHECK:   25 c    (8) c08
(PID.TID 0000.0001) GUD_CHECK:   26 c    (9) c09
(PID.TID 0000.0001) GUD_CHECK:   27 c    (*) c10
(PID.TID 0000.0001) GUD_CHECK:   28 c    (*) c11
(PID.TID 0000.0001) GUD_CHECK:   29 c    (*) c12
(PID.TID 0000.0001) GUD_CHECK:   30 c    (*) c13
(PID.TID 0000.0001) GUD_CHECK:   31 c    (*) c14
(PID.TID 0000.0001) GUD_CHECK:   32 c    (*) c15
(PID.TID 0000.0001) GUD_CHECK:   33 c    (*) c16
(PID.TID 0000.0001) GUD_CHECK:   34 c    (*) c17
(PID.TID 0000.0001) GUD_CHECK:   35 c    (*) c18
(PID.TID 0000.0001) GUD_CHECK:   36 c    (*) c19
(PID.TID 0000.0001) GUD_CHECK:   37 c    (*) c20
(PID.TID 0000.0001) GUD_CHECK:   38 c    (*) c21
(PID.TID 0000.0001) GUD_CHECK:   39 c    (*) c22
(PID.TID 0000.0001) GUD_CHECK:   40 c    (*) c23
(PID.TID 0000.0001) GUD_CHECK:   41 c    (*) c24
(PID.TID 0000.0001) GUD_CHECK:   42 c    (*) c25
(PID.TID 0000.0001) GUD_CHECK:   43 c    (*) c26
(PID.TID 0000.0001) GUD_CHECK:   44 c    (*) c27
(PID.TID 0000.0001) GUD_CHECK:   45 c    (*) c28
(PID.TID 0000.0001) GUD_CHECK:   46 c    (*) c29
(PID.TID 0000.0001) GUD_CHECK:   47 c    (*) c30
(PID.TID 0000.0001) GUD_CHECK:   48 c    (*) c31
(PID.TID 0000.0001) GUD_CHECK:   49 c    (*) c32
(PID.TID 0000.0001) GUD_CHECK:   50 c    (*) c33
(PID.TID 0000.0001) GUD_CHECK:   51 c    (*) c34
(PID.TID 0000.0001) GUD_CHECK:   52 c    (*) c35
(PID.TID 0000.0001) GUD_CHECK:   53 c    (*) c36
(PID.TID 0000.0001) GUD_CHECK:   54 c    (*) c37
(PID.TID 0000.0001) GUD_CHECK:   55 c    (*) c38
(PID.TID 0000.0001) GUD_CHECK:   56 c    (*) c39
(PID.TID 0000.0001) GUD_CHECK:   57 c    (*) c40
(PID.TID 0000.0001) GUD_CHECK:   58 c    (*) c41
(PID.TID 0000.0001) GUD_CHECK:   59 c    (*) c42
(PID.TID 0000.0001) GUD_CHECK:   60 c    (*) c43
(PID.TID 0000.0001) GUD_CHECK:   61 c    (*) c44
(PID.TID 0000.0001) GUD_CHECK:   62 c    (*) c45
(PID.TID 0000.0001) GUD_CHECK:   63 c    (*) c46
(PID.TID 0000.0001) GUD_CHECK:   64 c    (*) c47
(PID.TID 0000.0001) GUD_CHECK:   65 c    (*) c48
(PID.TID 0000.0001) GUD_CHECK:   66 c    (*) c49
(PID.TID 0000.0001) GUD_CHECK:   67 c    (*) c50
(PID.TID 0000.0001) GUD_CHECK:   68 c    (*) c51
(PID.TID 0000.0001) GUD_CHECK:   69 c    (*) c52
(PID.TID 0000.0001) GUD_CHECK:   70 c    (*) c53
(PID.TID 0000.0001) GUD_CHECK:   71 c    (*) c54
(PID.TID 0000.0001) GUD_CHECK:   72 c    (*) c55
(PID.TID 0000.0001) GUD_CHECK:   73 c    (*) c56
(PID.TID 0000.0001) GUD_CHECK:   74 c    (*) c57
(PID.TID 0000.0001) GUD_CHECK:   75 c    (*) c58
(PID.TID 0000.0001) GUD_CHECK:   76 c    (*) c59
(PID.TID 0000.0001) GUD_CHECK:   77 c    (*) c60
(PID.TID 0000.0001) GUD_CHECK:   78 c    (*) c61
(PID.TID 0000.0001) GUD_CHECK:   79 c    (*) c62
(PID.TID 0000.0001) GUD_CHECK:   80 c    (*) c63
(PID.TID 0000.0001) GUD_CHECK:   81 c    (*) c64
(PID.TID 0000.0001) GUD_CHECK:   82 c    (*) c65
(PID.TID 0000.0001) GUD_CHECK:   83 c    (*) c66
(PID.TID 0000.0001) GUD_CHECK:   84 c    (*) c67
(PID.TID 0000.0001) GUD_CHECK:   85 c    (*) c68
(PID.TID 0000.0001) GUD_CHECK:   86 c    (*) c69
(PID.TID 0000.0001) GUD_CHECK:   87 c    (*) c70
(PID.TID 0000.0001) GUD_CHECK:   88 c    (*) c71
(PID.TID 0000.0001) GUD_CHECK:   89 c    (*) c72
(PID.TID 0000.0001) GUD_CHECK:   90 c    (*) c73
(PID.TID 0000.0001) GUD_CHECK:   91 c    (*) c74
(PID.TID 0000.0001) GUD_CHECK:   92 c    (*) c75
(PID.TID 0000.0001) GUD_CHECK:   93 c    (*) c76
(PID.TID 0000.0001) GUD_CHECK:   94 c    (*) c77
(PID.TID 0000.0001) GUD_CHECK:   95 c    (*) c78
(PID.TID 0000.0001) GUD_CHECK:   96 c    (*) zc1
(PID.TID 0000.0001) GUD_CHECK:   97 c    (*) zc2
(PID.TID 0000.0001) SEAICE_CHECK: #define ALLOW_SEAICE
(PID.TID 0000.0001) GAD_CHECK: #define ALLOW_GENERIC_ADVDIFF
(PID.TID 0000.0001) // =======================================================
(PID.TID 0000.0001) // Check Model config. (CONFIG_CHECK):
(PID.TID 0000.0001) // CONFIG_CHECK : Normal End
(PID.TID 0000.0001) // =======================================================
(PID.TID 0000.0001) 
(PID.TID 0000.0001)  MDS_READ_META: opening file: pickup.0000188388.meta
(PID.TID 0000.0001)  nRecords = 195 ; filePrec =  64 ; fileIter =    188388
(PID.TID 0000.0001)     nDims =   2 , dims:
(PID.TID 0000.0001)    1:  76   1  76
(PID.TID 0000.0001)    2:  72   1  72
(PID.TID 0000.0001)     nFlds =   0 , nFl3D =   0 , fields:
(PID.TID 0000.0001) missingVal=  1.00000000000000E+00 ; nTimRec =   0 , timeList:
(PID.TID 0000.0001)  MDS_READ_FIELD: opening global file: pickup.0000188388.data
(PID.TID 0000.0001)  MDS_READ_FIELD: opening global file: pickup.0000188388.data
(PID.TID 0000.0001)  MDS_READ_FIELD: opening global file: pickup.0000188388.data
(PID.TID 0000.0001)  MDS_READ_FIELD: opening global file: pickup.0000188388.data
(PID.TID 0000.0001)  MDS_READ_FIELD: opening global file: pickup.0000188388.data
(PID.TID 0000.0001)  MDS_READ_FIELD: opening global file: pickup.0000188388.data
(PID.TID 0000.0001)  MDS_READ_FIELD: opening global file: pickup.0000188388.data
(PID.TID 0000.0001)  MDS_READ_FIELD: opening global file: pickup.0000188388.data
(PID.TID 0000.0001)  MDS_READ_FIELD: opening global file: pickup.0000188388.data
(PID.TID 0000.0001)  MDS_READ_FIELD: opening global file: pickup.0000188388.data
(PID.TID 0000.0001) READ_MFLDS_CHECK: - normal end ; reset MFLDS file-name: pickup.0000188388
(PID.TID 0000.0001)  write diagnostics summary to file ioUnit:      6
Iter.Nb:    188388 ; Time(s):  2.2606560000000E+08
------------------------------------------------------------------------
2D/3D diagnostics: Number of lists:     1
------------------------------------------------------------------------
listId=    1 ; file name: gud
 nFlds, nActive,       freq     &     phase        , nLev               
   97  |   97  |      1200.000000         0.000000 |  24
 levels:   1   2   3   4   5   6   7   8   9  10  11  12  13  14  15  16  17  18  19  20  21  22  23  24
 diag# | name   |   ipt  |  iMate | kLev|   count |   mate.C|           
   210 |TRAC01  |      1 |      0 |  24 |       0 |
   223 |TRAC02  |     25 |      0 |  24 |       0 |
   236 |TRAC03  |     49 |      0 |  24 |       0 |
   249 |TRAC04  |     73 |      0 |  24 |       0 |
   262 |TRAC05  |     97 |      0 |  24 |       0 |
   275 |TRAC06  |    121 |      0 |  24 |       0 |
   288 |TRAC07  |    145 |      0 |  24 |       0 |
   301 |TRAC08  |    169 |      0 |  24 |       0 |
   314 |TRAC09  |    193 |      0 |  24 |       0 |
   327 |TRAC10  |    217 |      0 |  24 |       0 |
   340 |TRAC11  |    241 |      0 |  24 |       0 |
   353 |TRAC12  |    265 |      0 |  24 |       0 |
   366 |TRAC13  |    289 |      0 |  24 |       0 |
   379 |TRAC14  |    313 |      0 |  24 |       0 |
   392 |TRAC15  |    337 |      0 |  24 |       0 |
   405 |TRAC16  |    361 |      0 |  24 |       0 |
   418 |TRAC17  |    385 |      0 |  24 |       0 |
   431 |TRAC18  |    409 |      0 |  24 |       0 |
   444 |TRAC19  |    433 |      0 |  24 |       0 |
   457 |TRAC20  |    457 |      0 |  24 |       0 |
   470 |TRAC21  |    481 |      0 |  24 |       0 |
   483 |TRAC22  |    505 |      0 |  24 |       0 |
   496 |TRAC23  |    529 |      0 |  24 |       0 |
   509 |TRAC24  |    553 |      0 |  24 |       0 |
   522 |TRAC25  |    577 |      0 |  24 |       0 |
   535 |TRAC26  |    601 |      0 |  24 |       0 |
   548 |TRAC27  |    625 |      0 |  24 |       0 |
   561 |TRAC28  |    649 |      0 |  24 |       0 |
   574 |TRAC29  |    673 |      0 |  24 |       0 |
   587 |TRAC30  |    697 |      0 |  24 |       0 |
   600 |TRAC31  |    721 |      0 |  24 |       0 |
   613 |TRAC32  |    745 |      0 |  24 |       0 |
   626 |TRAC33  |    769 |      0 |  24 |       0 |
   639 |TRAC34  |    793 |      0 |  24 |       0 |
   652 |TRAC35  |    817 |      0 |  24 |       0 |
   665 |TRAC36  |    841 |      0 |  24 |       0 |
   678 |TRAC37  |    865 |      0 |  24 |       0 |
   691 |TRAC38  |    889 |      0 |  24 |       0 |
   704 |TRAC39  |    913 |      0 |  24 |       0 |
   717 |TRAC40  |    937 |      0 |  24 |       0 |
   730 |TRAC41  |    961 |      0 |  24 |       0 |
   743 |TRAC42  |    985 |      0 |  24 |       0 |
   756 |TRAC43  |   1009 |      0 |  24 |       0 |
   769 |TRAC44  |   1033 |      0 |  24 |       0 |
   782 |TRAC45  |   1057 |      0 |  24 |       0 |
   795 |TRAC46  |   1081 |      0 |  24 |       0 |
   808 |TRAC47  |   1105 |      0 |  24 |       0 |
   821 |TRAC48  |   1129 |      0 |  24 |       0 |
   834 |TRAC49  |   1153 |      0 |  24 |       0 |
   847 |TRAC50  |   1177 |      0 |  24 |       0 |
   860 |TRAC51  |   1201 |      0 |  24 |       0 |
   873 |TRAC52  |   1225 |      0 |  24 |       0 |
   886 |TRAC53  |   1249 |      0 |  24 |       0 |
   899 |TRAC54  |   1273 |      0 |  24 |       0 |
   912 |TRAC55  |   1297 |      0 |  24 |       0 |
   925 |TRAC56  |   1321 |      0 |  24 |       0 |
   938 |TRAC57  |   1345 |      0 |  24 |       0 |
   951 |TRAC58  |   1369 |      0 |  24 |       0 |
   964 |TRAC59  |   1393 |      0 |  24 |       0 |
   977 |TRAC60  |   1417 |      0 |  24 |       0 |
   990 |TRAC61  |   1441 |      0 |  24 |       0 |
  1003 |TRAC62  |   1465 |      0 |  24 |       0 |
  1016 |TRAC63  |   1489 |      0 |  24 |       0 |
  1029 |TRAC64  |   1513 |      0 |  24 |       0 |
  1042 |TRAC65  |   1537 |      0 |  24 |       0 |
  1055 |TRAC66  |   1561 |      0 |  24 |       0 |
  1068 |TRAC67  |   1585 |      0 |  24 |       0 |
  1081 |TRAC68  |   1609 |      0 |  24 |       0 |
  1094 |TRAC69  |   1633 |      0 |  24 |       0 |
  1107 |TRAC70  |   1657 |      0 |  24 |       0 |
  1120 |TRAC71  |   1681 |      0 |  24 |       0 |
  1133 |TRAC72  |   1705 |      0 |  24 |       0 |
  1146 |TRAC73  |   1729 |      0 |  24 |       0 |
  1159 |TRAC74  |   1753 |      0 |  24 |       0 |
  1172 |TRAC75  |   1777 |      0 |  24 |       0 |
  1185 |TRAC76  |   1801 |      0 |  24 |       0 |
  1198 |TRAC77  |   1825 |      0 |  24 |       0 |
  1211 |TRAC78  |   1849 |      0 |  24 |       0 |
  1224 |TRAC79  |   1873 |      0 |  24 |       0 |
  1237 |TRAC80  |   1897 |      0 |  24 |       0 |
  1250 |TRAC81  |   1921 |      0 |  24 |       0 |
  1263 |TRAC82  |   1945 |      0 |  24 |       0 |
  1276 |TRAC83  |   1969 |      0 |  24 |       0 |
  1289 |TRAC84  |   1993 |      0 |  24 |       0 |
  1302 |TRAC85  |   2017 |      0 |  24 |       0 |
  1315 |TRAC86  |   2041 |      0 |  24 |       0 |
  1328 |TRAC87  |   2065 |      0 |  24 |       0 |
  1341 |TRAC88  |   2089 |      0 |  24 |       0 |
  1354 |TRAC89  |   2113 |      0 |  24 |       0 |
  1367 |TRAC90  |   2137 |      0 |  24 |       0 |
  1380 |TRAC91  |   2161 |      0 |  24 |       0 |
  1393 |TRAC92  |   2185 |      0 |  24 |       0 |
  1406 |TRAC93  |   2209 |      0 |  24 |       0 |
  1419 |TRAC94  |   2233 |      0 |  24 |       0 |
  1432 |TRAC95  |   2257 |      0 |  24 |       0 |
  1445 |TRAC96  |   2281 |      0 |  24 |       0 |
  1458 |TRAC97  |   2305 |      0 |  24 |       0 |
------------------------------------------------------------------------
Global & Regional Statistics diagnostics: Number of lists:     0
------------------------------------------------------------------------
(PID.TID 0000.0001)  MDS_READ_META: opening file: pickup_ptracers.0000188388.meta
(PID.TID 0000.0001)  nRecords =  97 ; filePrec =  64 ; fileIter =    188388
(PID.TID 0000.0001)     nDims =   3 , dims:
(PID.TID 0000.0001)    1:  76   1  76
(PID.TID 0000.0001)    2:  72   1  72
(PID.TID 0000.0001)    3:  24   1  24
(PID.TID 0000.0001)     nFlds =  97 , nFl3D =   0 , fields:
(PID.TID 0000.0001)  >pTr01   < >pTr02   < >pTr03   < >pTr04   < >pTr05   < >pTr06   < >pTr07   < >pTr08   < >pTr09   < >pTr10   < >pTr11   < >pTr12   < >pTr13   < >pTr14   < >pTr15   < >pTr16   < >pTr17   < >pTr18   < >pTr19   < >pTr20   <
(PID.TID 0000.0001)  >pTr21   < >pTr22   < >pTr23   < >pTr24   < >pTr25   < >pTr26   < >pTr27   < >pTr28   < >pTr29   < >pTr30   < >pTr31   < >pTr32   < >pTr33   < >pTr34   < >pTr35   < >pTr36   < >pTr37   < >pTr38   < >pTr39   < >pTr40   <
(PID.TID 0000.0001)  >pTr41   < >pTr42   < >pTr43   < >pTr44   < >pTr45   < >pTr46   < >pTr47   < >pTr48   < >pTr49   < >pTr50   < >pTr51   < >pTr52   < >pTr53   < >pTr54   < >pTr55   < >pTr56   < >pTr57   < >pTr58   < >pTr59   < >pTr60   <
(PID.TID 0000.0001)  >pTr61   < >pTr62   < >pTr63   < >pTr64   < >pTr65   < >pTr66   < >pTr67   < >pTr68   < >pTr69   < >pTr70   < >pTr71   < >pTr72   < >pTr73   < >pTr74   < >pTr75   < >pTr76   < >pTr77   < >pTr78   < >pTr79   < >pTr80   <
(PID.TID 0000.0001)  >pTr81   < >pTr82   < >pTr83   < >pTr84   < >pTr85   < >pTr86   < >pTr87   < >pTr88   < >pTr89   < >pTr90   < >pTr91   < >pTr92   < >pTr93   < >pTr94   < >pTr95   < >pTr96   < >pTr97   <
(PID.TID 0000.0001) missingVal=  1.00000000000000E+00 ; nTimRec =   0 , timeList:
(PID.TID 0000.0001) READ_MFLDS_3D_RL: read field: "pTr01   ", #   1 in fldList, rec=   1
(PID.TID 0000.0001)  MDS_READ_FIELD: opening global file: pickup_ptracers.0000188388.data
(PID.TID 0000.0001) READ_MFLDS_3D_RL: read field: "pTr02   ", #   2 in fldList, rec=   2
(PID.TID 0000.0001)  MDS_READ_FIELD: opening global file: pickup_ptracers.0000188388.data
(PID.TID 0000.0001) READ_MFLDS_3D_RL: read field: "pTr03   ", #   3 in fldList, rec=   3
(PID.TID 0000.0001)  MDS_READ_FIELD: opening global file: pickup_ptracers.0000188388.data
(PID.TID 0000.0001) READ_MFLDS_3D_RL: read field: "pTr04   ", #   4 in fldList, rec=   4
(PID.TID 0000.0001)  MDS_READ_FIELD: opening global file: pickup_ptracers.0000188388.data
(PID.TID 0000.0001) READ_MFLDS_3D_RL: read field: "pTr05   ", #   5 in fldList, rec=   5
(PID.TID 0000.0001)  MDS_READ_FIELD: opening global file: pickup_ptracers.0000188388.data
(PID.TID 0000.0001) READ_MFLDS_3D_RL: read field: "pTr06   ", #   6 in fldList, rec=   6
(PID.TID 0000.0001)  MDS_READ_FIELD: opening global file: pickup_ptracers.0000188388.data
(PID.TID 0000.0001) READ_MFLDS_3D_RL: read field: "pTr07   ", #   7 in fldList, rec=   7
(PID.TID 0000.0001)  MDS_READ_FIELD: opening global file: pickup_ptracers.0000188388.data
(PID.TID 0000.0001) READ_MFLDS_3D_RL: read field: "pTr08   ", #   8 in fldList, rec=   8
(PID.TID 0000.0001)  MDS_READ_FIELD: opening global file: pickup_ptracers.0000188388.data
(PID.TID 0000.0001) READ_MFLDS_3D_RL: read field: "pTr09   ", #   9 in fldList, rec=   9
(PID.TID 0000.0001)  MDS_READ_FIELD: opening global file: pickup_ptracers.0000188388.data
(PID.TID 0000.0001) READ_MFLDS_3D_RL: read field: "pTr10   ", #  10 in fldList, rec=  10
(PID.TID 0000.0001)  MDS_READ_FIELD: opening global file: pickup_ptracers.0000188388.data
(PID.TID 0000.0001) READ_MFLDS_3D_RL: read field: "pTr11   ", #  11 in fldList, rec=  11
(PID.TID 0000.0001)  MDS_READ_FIELD: opening global file: pickup_ptracers.0000188388.data
(PID.TID 0000.0001) READ_MFLDS_3D_RL: read field: "pTr12   ", #  12 in fldList, rec=  12
(PID.TID 0000.0001)  MDS_READ_FIELD: opening global file: pickup_ptracers.0000188388.data
(PID.TID 0000.0001) READ_MFLDS_3D_RL: read field: "pTr13   ", #  13 in fldList, rec=  13
(PID.TID 0000.0001)  MDS_READ_FIELD: opening global file: pickup_ptracers.0000188388.data
(PID.TID 0000.0001) READ_MFLDS_3D_RL: read field: "pTr14   ", #  14 in fldList, rec=  14
(PID.TID 0000.0001)  MDS_READ_FIELD: opening global file: pickup_ptracers.0000188388.data
(PID.TID 0000.0001) READ_MFLDS_3D_RL: read field: "pTr15   ", #  15 in fldList, rec=  15
(PID.TID 0000.0001)  MDS_READ_FIELD: opening global file: pickup_ptracers.0000188388.data
(PID.TID 0000.0001) READ_MFLDS_3D_RL: read field: "pTr16   ", #  16 in fldList, rec=  16
(PID.TID 0000.0001)  MDS_READ_FIELD: opening global file: pickup_ptracers.0000188388.data
(PID.TID 0000.0001) READ_MFLDS_3D_RL: read field: "pTr17   ", #  17 in fldList, rec=  17
(PID.TID 0000.0001)  MDS_READ_FIELD: opening global file: pickup_ptracers.0000188388.data
(PID.TID 0000.0001) READ_MFLDS_3D_RL: read field: "pTr18   ", #  18 in fldList, rec=  18
(PID.TID 0000.0001)  MDS_READ_FIELD: opening global file: pickup_ptracers.0000188388.data
(PID.TID 0000.0001) READ_MFLDS_3D_RL: read field: "pTr19   ", #  19 in fldList, rec=  19
(PID.TID 0000.0001)  MDS_READ_FIELD: opening global file: pickup_ptracers.0000188388.data
(PID.TID 0000.0001) READ_MFLDS_3D_RL: read field: "pTr20   ", #  20 in fldList, rec=  20
(PID.TID 0000.0001)  MDS_READ_FIELD: opening global file: pickup_ptracers.0000188388.data
(PID.TID 0000.0001) READ_MFLDS_3D_RL: read field: "pTr21   ", #  21 in fldList, rec=  21
(PID.TID 0000.0001)  MDS_READ_FIELD: opening global file: pickup_ptracers.0000188388.data
(PID.TID 0000.0001) READ_MFLDS_3D_RL: read field: "pTr22   ", #  22 in fldList, rec=  22
(PID.TID 0000.0001)  MDS_READ_FIELD: opening global file: pickup_ptracers.0000188388.data
(PID.TID 0000.0001) READ_MFLDS_3D_RL: read field: "pTr23   ", #  23 in fldList, rec=  23
(PID.TID 0000.0001)  MDS_READ_FIELD: opening global file: pickup_ptracers.0000188388.data
(PID.TID 0000.0001) READ_MFLDS_3D_RL: read field: "pTr24   ", #  24 in fldList, rec=  24
(PID.TID 0000.0001)  MDS_READ_FIELD: opening global file: pickup_ptracers.0000188388.data
(PID.TID 0000.0001) READ_MFLDS_3D_RL: read field: "pTr25   ", #  25 in fldList, rec=  25
(PID.TID 0000.0001)  MDS_READ_FIELD: opening global file: pickup_ptracers.0000188388.data
(PID.TID 0000.0001) READ_MFLDS_3D_RL: read field: "pTr26   ", #  26 in fldList, rec=  26
(PID.TID 0000.0001)  MDS_READ_FIELD: opening global file: pickup_ptracers.0000188388.data
(PID.TID 0000.0001) READ_MFLDS_3D_RL: read field: "pTr27   ", #  27 in fldList, rec=  27
(PID.TID 0000.0001)  MDS_READ_FIELD: opening global file: pickup_ptracers.0000188388.data
(PID.TID 0000.0001) READ_MFLDS_3D_RL: read field: "pTr28   ", #  28 in fldList, rec=  28
(PID.TID 0000.0001)  MDS_READ_FIELD: opening global file: pickup_ptracers.0000188388.data
(PID.TID 0000.0001) READ_MFLDS_3D_RL: read field: "pTr29   ", #  29 in fldList, rec=  29
(PID.TID 0000.0001)  MDS_READ_FIELD: opening global file: pickup_ptracers.0000188388.data
(PID.TID 0000.0001) READ_MFLDS_3D_RL: read field: "pTr30   ", #  30 in fldList, rec=  30
(PID.TID 0000.0001)  MDS_READ_FIELD: opening global file: pickup_ptracers.0000188388.data
(PID.TID 0000.0001) READ_MFLDS_3D_RL: read field: "pTr31   ", #  31 in fldList, rec=  31
(PID.TID 0000.0001)  MDS_READ_FIELD: opening global file: pickup_ptracers.0000188388.data
(PID.TID 0000.0001) READ_MFLDS_3D_RL: read field: "pTr32   ", #  32 in fldList, rec=  32
(PID.TID 0000.0001)  MDS_READ_FIELD: opening global file: pickup_ptracers.0000188388.data
(PID.TID 0000.0001) READ_MFLDS_3D_RL: read field: "pTr33   ", #  33 in fldList, rec=  33
(PID.TID 0000.0001)  MDS_READ_FIELD: opening global file: pickup_ptracers.0000188388.data
(PID.TID 0000.0001) READ_MFLDS_3D_RL: read field: "pTr34   ", #  34 in fldList, rec=  34
(PID.TID 0000.0001)  MDS_READ_FIELD: opening global file: pickup_ptracers.0000188388.data
(PID.TID 0000.0001) READ_MFLDS_3D_RL: read field: "pTr35   ", #  35 in fldList, rec=  35
(PID.TID 0000.0001)  MDS_READ_FIELD: opening global file: pickup_ptracers.0000188388.data
(PID.TID 0000.0001) READ_MFLDS_3D_RL: read field: "pTr36   ", #  36 in fldList, rec=  36
(PID.TID 0000.0001)  MDS_READ_FIELD: opening global file: pickup_ptracers.0000188388.data
(PID.TID 0000.0001) READ_MFLDS_3D_RL: read field: "pTr37   ", #  37 in fldList, rec=  37
(PID.TID 0000.0001)  MDS_READ_FIELD: opening global file: pickup_ptracers.0000188388.data
(PID.TID 0000.0001) READ_MFLDS_3D_RL: read field: "pTr38   ", #  38 in fldList, rec=  38
(PID.TID 0000.0001)  MDS_READ_FIELD: opening global file: pickup_ptracers.0000188388.data
(PID.TID 0000.0001) READ_MFLDS_3D_RL: read field: "pTr39   ", #  39 in fldList, rec=  39
(PID.TID 0000.0001)  MDS_READ_FIELD: opening global file: pickup_ptracers.0000188388.data
(PID.TID 0000.0001) READ_MFLDS_3D_RL: read field: "pTr40   ", #  40 in fldList, rec=  40
(PID.TID 0000.0001)  MDS_READ_FIELD: opening global file: pickup_ptracers.0000188388.data
(PID.TID 0000.0001) READ_MFLDS_3D_RL: read field: "pTr41   ", #  41 in fldList, rec=  41
(PID.TID 0000.0001)  MDS_READ_FIELD: opening global file: pickup_ptracers.0000188388.data
(PID.TID 0000.0001) READ_MFLDS_3D_RL: read field: "pTr42   ", #  42 in fldList, rec=  42
(PID.TID 0000.0001)  MDS_READ_FIELD: opening global file: pickup_ptracers.0000188388.data
(PID.TID 0000.0001) READ_MFLDS_3D_RL: read field: "pTr43   ", #  43 in fldList, rec=  43
(PID.TID 0000.0001)  MDS_READ_FIELD: opening global file: pickup_ptracers.0000188388.data
(PID.TID 0000.0001) READ_MFLDS_3D_RL: read field: "pTr44   ", #  44 in fldList, rec=  44
(PID.TID 0000.0001)  MDS_READ_FIELD: opening global file: pickup_ptracers.0000188388.data
(PID.TID 0000.0001) READ_MFLDS_3D_RL: read field: "pTr45   ", #  45 in fldList, rec=  45
(PID.TID 0000.0001)  MDS_READ_FIELD: opening global file: pickup_ptracers.0000188388.data
(PID.TID 0000.0001) READ_MFLDS_3D_RL: read field: "pTr46   ", #  46 in fldList, rec=  46
(PID.TID 0000.0001)  MDS_READ_FIELD: opening global file: pickup_ptracers.0000188388.data
(PID.TID 0000.0001) READ_MFLDS_3D_RL: read field: "pTr47   ", #  47 in fldList, rec=  47
(PID.TID 0000.0001)  MDS_READ_FIELD: opening global file: pickup_ptracers.0000188388.data
(PID.TID 0000.0001) READ_MFLDS_3D_RL: read field: "pTr48   ", #  48 in fldList, rec=  48
(PID.TID 0000.0001)  MDS_READ_FIELD: opening global file: pickup_ptracers.0000188388.data
(PID.TID 0000.0001) READ_MFLDS_3D_RL: read field: "pTr49   ", #  49 in fldList, rec=  49
(PID.TID 0000.0001)  MDS_READ_FIELD: opening global file: pickup_ptracers.0000188388.data
(PID.TID 0000.0001) READ_MFLDS_3D_RL: read field: "pTr50   ", #  50 in fldList, rec=  50
(PID.TID 0000.0001)  MDS_READ_FIELD: opening global file: pickup_ptracers.0000188388.data
(PID.TID 0000.0001) READ_MFLDS_3D_RL: read field: "pTr51   ", #  51 in fldList, rec=  51
(PID.TID 0000.0001)  MDS_READ_FIELD: opening global file: pickup_ptracers.0000188388.data
(PID.TID 0000.0001) READ_MFLDS_3D_RL: read field: "pTr52   ", #  52 in fldList, rec=  52
(PID.TID 0000.0001)  MDS_READ_FIELD: opening global file: pickup_ptracers.0000188388.data
(PID.TID 0000.0001) READ_MFLDS_3D_RL: read field: "pTr53   ", #  53 in fldList, rec=  53
(PID.TID 0000.0001)  MDS_READ_FIELD: opening global file: pickup_ptracers.0000188388.data
(PID.TID 0000.0001) READ_MFLDS_3D_RL: read field: "pTr54   ", #  54 in fldList, rec=  54
(PID.TID 0000.0001)  MDS_READ_FIELD: opening global file: pickup_ptracers.0000188388.data
(PID.TID 0000.0001) READ_MFLDS_3D_RL: read field: "pTr55   ", #  55 in fldList, rec=  55
(PID.TID 0000.0001)  MDS_READ_FIELD: opening global file: pickup_ptracers.0000188388.data
(PID.TID 0000.0001) READ_MFLDS_3D_RL: read field: "pTr56   ", #  56 in fldList, rec=  56
(PID.TID 0000.0001)  MDS_READ_FIELD: opening global file: pickup_ptracers.0000188388.data
(PID.TID 0000.0001) READ_MFLDS_3D_RL: read field: "pTr57   ", #  57 in fldList, rec=  57
(PID.TID 0000.0001)  MDS_READ_FIELD: opening global file: pickup_ptracers.0000188388.data
(PID.TID 0000.0001) READ_MFLDS_3D_RL: read field: "pTr58   ", #  58 in fldList, rec=  58
(PID.TID 0000.0001)  MDS_READ_FIELD: opening global file: pickup_ptracers.0000188388.data
(PID.TID 0000.0001) READ_MFLDS_3D_RL: read field: "pTr59   ", #  59 in fldList, rec=  59
(PID.TID 0000.0001)  MDS_READ_FIELD: opening global file: pickup_ptracers.0000188388.data
(PID.TID 0000.0001) READ_MFLDS_3D_RL: read field: "pTr60   ", #  60 in fldList, rec=  60
(PID.TID 0000.0001)  MDS_READ_FIELD: opening global file: pickup_ptracers.0000188388.data
(PID.TID 0000.0001) READ_MFLDS_3D_RL: read field: "pTr61   ", #  61 in fldList, rec=  61
(PID.TID 0000.0001)  MDS_READ_FIELD: opening global file: pickup_ptracers.0000188388.data
(PID.TID 0000.0001) READ_MFLDS_3D_RL: read field: "pTr62   ", #  62 in fldList, rec=  62
(PID.TID 0000.0001)  MDS_READ_FIELD: opening global file: pickup_ptracers.0000188388.data
(PID.TID 0000.0001) READ_MFLDS_3D_RL: read field: "pTr63   ", #  63 in fldList, rec=  63
(PID.TID 0000.0001)  MDS_READ_FIELD: opening global file: pickup_ptracers.0000188388.data
(PID.TID 0000.0001) READ_MFLDS_3D_RL: read field: "pTr64   ", #  64 in fldList, rec=  64
(PID.TID 0000.0001)  MDS_READ_FIELD: opening global file: pickup_ptracers.0000188388.data
(PID.TID 0000.0001) READ_MFLDS_3D_RL: read field: "pTr65   ", #  65 in fldList, rec=  65
(PID.TID 0000.0001)  MDS_READ_FIELD: opening global file: pickup_ptracers.0000188388.data
(PID.TID 0000.0001) READ_MFLDS_3D_RL: read field: "pTr66   ", #  66 in fldList, rec=  66
(PID.TID 0000.0001)  MDS_READ_FIELD: opening global file: pickup_ptracers.0000188388.data
(PID.TID 0000.0001) READ_MFLDS_3D_RL: read field: "pTr67   ", #  67 in fldList, rec=  67
(PID.TID 0000.0001)  MDS_READ_FIELD: opening global file: pickup_ptracers.0000188388.data
(PID.TID 0000.0001) READ_MFLDS_3D_RL: read field: "pTr68   ", #  68 in fldList, rec=  68
(PID.TID 0000.0001)  MDS_READ_FIELD: opening global file: pickup_ptracers.0000188388.data
(PID.TID 0000.0001) READ_MFLDS_3D_RL: read field: "pTr69   ", #  69 in fldList, rec=  69
(PID.TID 0000.0001)  MDS_READ_FIELD: opening global file: pickup_ptracers.0000188388.data
(PID.TID 0000.0001) READ_MFLDS_3D_RL: read field: "pTr70   ", #  70 in fldList, rec=  70
(PID.TID 0000.0001)  MDS_READ_FIELD: opening global file: pickup_ptracers.0000188388.data
(PID.TID 0000.0001) READ_MFLDS_3D_RL: read field: "pTr71   ", #  71 in fldList, rec=  71
(PID.TID 0000.0001)  MDS_READ_FIELD: opening global file: pickup_ptracers.0000188388.data
(PID.TID 0000.0001) READ_MFLDS_3D_RL: read field: "pTr72   ", #  72 in fldList, rec=  72
(PID.TID 0000.0001)  MDS_READ_FIELD: opening global file: pickup_ptracers.0000188388.data
(PID.TID 0000.0001) READ_MFLDS_3D_RL: read field: "pTr73   ", #  73 in fldList, rec=  73
(PID.TID 0000.0001)  MDS_READ_FIELD: opening global file: pickup_ptracers.0000188388.data
(PID.TID 0000.0001) READ_MFLDS_3D_RL: read field: "pTr74   ", #  74 in fldList, rec=  74
(PID.TID 0000.0001)  MDS_READ_FIELD: opening global file: pickup_ptracers.0000188388.data
(PID.TID 0000.0001) READ_MFLDS_3D_RL: read field: "pTr75   ", #  75 in fldList, rec=  75
(PID.TID 0000.0001)  MDS_READ_FIELD: opening global file: pickup_ptracers.0000188388.data
(PID.TID 0000.0001) READ_MFLDS_3D_RL: read field: "pTr76   ", #  76 in fldList, rec=  76
(PID.TID 0000.0001)  MDS_READ_FIELD: opening global file: pickup_ptracers.0000188388.data
(PID.TID 0000.0001) READ_MFLDS_3D_RL: read field: "pTr77   ", #  77 in fldList, rec=  77
(PID.TID 0000.0001)  MDS_READ_FIELD: opening global file: pickup_ptracers.0000188388.data
(PID.TID 0000.0001) READ_MFLDS_3D_RL: read field: "pTr78   ", #  78 in fldList, rec=  78
(PID.TID 0000.0001)  MDS_READ_FIELD: opening global file: pickup_ptracers.0000188388.data
(PID.TID 0000.0001) READ_MFLDS_3D_RL: read field: "pTr79   ", #  79 in fldList, rec=  79
(PID.TID 0000.0001)  MDS_READ_FIELD: opening global file: pickup_ptracers.0000188388.data
(PID.TID 0000.0001) READ_MFLDS_3D_RL: read field: "pTr80   ", #  80 in fldList, rec=  80
(PID.TID 0000.0001)  MDS_READ_FIELD: opening global file: pickup_ptracers.0000188388.data
(PID.TID 0000.0001) READ_MFLDS_3D_RL: read field: "pTr81   ", #  81 in fldList, rec=  81
(PID.TID 0000.0001)  MDS_READ_FIELD: opening global file: pickup_ptracers.0000188388.data
(PID.TID 0000.0001) READ_MFLDS_3D_RL: read field: "pTr82   ", #  82 in fldList, rec=  82
(PID.TID 0000.0001)  MDS_READ_FIELD: opening global file: pickup_ptracers.0000188388.data
(PID.TID 0000.0001) READ_MFLDS_3D_RL: read field: "pTr83   ", #  83 in fldList, rec=  83
(PID.TID 0000.0001)  MDS_READ_FIELD: opening global file: pickup_ptracers.0000188388.data
(PID.TID 0000.0001) READ_MFLDS_3D_RL: read field: "pTr84   ", #  84 in fldList, rec=  84
(PID.TID 0000.0001)  MDS_READ_FIELD: opening global file: pickup_ptracers.0000188388.data
(PID.TID 0000.0001) READ_MFLDS_3D_RL: read field: "pTr85   ", #  85 in fldList, rec=  85
(PID.TID 0000.0001)  MDS_READ_FIELD: opening global file: pickup_ptracers.0000188388.data
(PID.TID 0000.0001) READ_MFLDS_3D_RL: read field: "pTr86   ", #  86 in fldList, rec=  86
(PID.TID 0000.0001)  MDS_READ_FIELD: opening global file: pickup_ptracers.0000188388.data
(PID.TID 0000.0001) READ_MFLDS_3D_RL: read field: "pTr87   ", #  87 in fldList, rec=  87
(PID.TID 0000.0001)  MDS_READ_FIELD: opening global file: pickup_ptracers.0000188388.data
(PID.TID 0000.0001) READ_MFLDS_3D_RL: read field: "pTr88   ", #  88 in fldList, rec=  88
(PID.TID 0000.0001)  MDS_READ_FIELD: opening global file: pickup_ptracers.0000188388.data
(PID.TID 0000.0001) READ_MFLDS_3D_RL: read field: "pTr89   ", #  89 in fldList, rec=  89
(PID.TID 0000.0001)  MDS_READ_FIELD: opening global file: pickup_ptracers.0000188388.data
(PID.TID 0000.0001) READ_MFLDS_3D_RL: read field: "pTr90   ", #  90 in fldList, rec=  90
(PID.TID 0000.0001)  MDS_READ_FIELD: opening global file: pickup_ptracers.0000188388.data
(PID.TID 0000.0001) READ_MFLDS_3D_RL: read field: "pTr91   ", #  91 in fldList, rec=  91
(PID.TID 0000.0001)  MDS_READ_FIELD: opening global file: pickup_ptracers.0000188388.data
(PID.TID 0000.0001) READ_MFLDS_3D_RL: read field: "pTr92   ", #  92 in fldList, rec=  92
(PID.TID 0000.0001)  MDS_READ_FIELD: opening global file: pickup_ptracers.0000188388.data
(PID.TID 0000.0001) READ_MFLDS_3D_RL: read field: "pTr93   ", #  93 in fldList, rec=  93
(PID.TID 0000.0001)  MDS_READ_FIELD: opening global file: pickup_ptracers.0000188388.data
(PID.TID 0000.0001) READ_MFLDS_3D_RL: read field: "pTr94   ", #  94 in fldList, rec=  94
(PID.TID 0000.0001)  MDS_READ_FIELD: opening global file: pickup_ptracers.0000188388.data
(PID.TID 0000.0001) READ_MFLDS_3D_RL: read field: "pTr95   ", #  95 in fldList, rec=  95
(PID.TID 0000.0001)  MDS_READ_FIELD: opening global file: pickup_ptracers.0000188388.data
(PID.TID 0000.0001) READ_MFLDS_3D_RL: read field: "pTr96   ", #  96 in fldList, rec=  96
(PID.TID 0000.0001)  MDS_READ_FIELD: opening global file: pickup_ptracers.0000188388.data
(PID.TID 0000.0001) READ_MFLDS_3D_RL: read field: "pTr97   ", #  97 in fldList, rec=  97
(PID.TID 0000.0001)  MDS_READ_FIELD: opening global file: pickup_ptracers.0000188388.data
(PID.TID 0000.0001) READ_MFLDS_CHECK: - normal end ; reset MFLDS file-name: pickup_ptracers.0000188388
(PID.TID 0000.0001)  MDS_READ_META: opening file: pickup_seaice.0000188388.meta
(PID.TID 0000.0001)  nRecords =   7 ; filePrec =  64 ; fileIter =    188388
(PID.TID 0000.0001)     nDims =   3 , dims:
(PID.TID 0000.0001)    1:  76   1  76
(PID.TID 0000.0001)    2:  72   1  72
(PID.TID 0000.0001)    3:   3   1   3
(PID.TID 0000.0001)     nFlds =   0 , nFl3D =   0 , fields:
(PID.TID 0000.0001) missingVal=  1.00000000000000E+00 ; nTimRec =   0 , timeList:
(PID.TID 0000.0001)  MDS_READ_FIELD: opening global file: pickup_seaice.0000188388.data
(PID.TID 0000.0001)  MDS_READ_FIELD: opening global file: pickup_seaice.0000188388.data
(PID.TID 0000.0001)  MDS_READ_FIELD: opening global file: pickup_seaice.0000188388.data
(PID.TID 0000.0001)  MDS_READ_FIELD: opening global file: pickup_seaice.0000188388.data
(PID.TID 0000.0001)  MDS_READ_FIELD: opening global file: pickup_seaice.0000188388.data
(PID.TID 0000.0001)  MDS_READ_FIELD: opening global file: pickup_seaice.0000188388.data
(PID.TID 0000.0001) READ_MFLDS_CHECK: - normal end ; reset MFLDS file-name: pickup_seaice.0000188388
(PID.TID 0000.0001)  MDS_READ_SEC_XZ: opening global file: OBNu_baltic_76x72.bin
(PID.TID 0000.0001)  MDS_READ_SEC_XZ: opening global file: OBNu_baltic_76x72.bin
(PID.TID 0000.0001)  MDS_READ_SEC_XZ: opening global file: OBNv_baltic_76x72.bin
(PID.TID 0000.0001)  MDS_READ_SEC_XZ: opening global file: OBNv_baltic_76x72.bin
(PID.TID 0000.0001)  MDS_READ_SEC_XZ: opening global file: OBNt_baltic_76x72.stable
(PID.TID 0000.0001)  MDS_READ_SEC_XZ: opening global file: OBNt_baltic_76x72.stable
(PID.TID 0000.0001)  MDS_READ_SEC_XZ: opening global file: OBNs_baltic_76x72.stable
(PID.TID 0000.0001)  MDS_READ_SEC_XZ: opening global file: OBNs_baltic_76x72.stable
(PID.TID 0000.0001)  MDS_READ_SEC_XZ: opening global file: OBN_DIC_76x72x24_baltic_128.bin
(PID.TID 0000.0001)  MDS_READ_SEC_XZ: opening global file: OBN_DIC_76x72x24_baltic_128.bin
(PID.TID 0000.0001)  MDS_READ_SEC_XZ: opening global file: OBN_NH4_76x72x24_baltic_128.bin
(PID.TID 0000.0001)  MDS_READ_SEC_XZ: opening global file: OBN_NH4_76x72x24_baltic_128.bin
(PID.TID 0000.0001)  MDS_READ_SEC_XZ: opening global file: OBN_NO2_76x72x24_baltic_128.bin
(PID.TID 0000.0001)  MDS_READ_SEC_XZ: opening global file: OBN_NO2_76x72x24_baltic_128.bin
(PID.TID 0000.0001)  MDS_READ_SEC_XZ: opening global file: OBN_NO3_76x72x24_baltic_128.bin
(PID.TID 0000.0001)  MDS_READ_SEC_XZ: opening global file: OBN_NO3_76x72x24_baltic_128.bin
(PID.TID 0000.0001)  MDS_READ_SEC_XZ: opening global file: OBN_PO4_76x72x24_baltic_128.bin
(PID.TID 0000.0001)  MDS_READ_SEC_XZ: opening global file: OBN_PO4_76x72x24_baltic_128.bin
(PID.TID 0000.0001)  MDS_READ_SEC_XZ: opening global file: OBN_SiO2_76x72x24_baltic_128.bin
(PID.TID 0000.0001)  MDS_READ_SEC_XZ: opening global file: OBN_SiO2_76x72x24_baltic_128.bin
(PID.TID 0000.0001)  MDS_READ_SEC_XZ: opening global file: OBN_FeT_76x72x24_baltic_128.bin
(PID.TID 0000.0001)  MDS_READ_SEC_XZ: opening global file: OBN_FeT_76x72x24_baltic_128.bin
(PID.TID 0000.0001)  MDS_READ_SEC_XZ: opening global file: OBN_zero_76x72x24_baltic_128.bin
(PID.TID 0000.0001)  MDS_READ_SEC_XZ: opening global file: OBN_zero_76x72x24_baltic_128.bin
(PID.TID 0000.0001)  MDS_READ_SEC_XZ: opening global file: OBN_DON_76x72x24_baltic_128.bin
(PID.TID 0000.0001)  MDS_READ_SEC_XZ: opening global file: OBN_DON_76x72x24_baltic_128.bin
(PID.TID 0000.0001)  MDS_READ_SEC_XZ: opening global file: OBN_DOP_76x72x24_baltic_128.bin
(PID.TID 0000.0001)  MDS_READ_SEC_XZ: opening global file: OBN_DOP_76x72x24_baltic_128.bin
(PID.TID 0000.0001)  MDS_READ_SEC_XZ: opening global file: OBN_DOFe_76x72x24_baltic_128.bin
(PID.TID 0000.0001)  MDS_READ_SEC_XZ: opening global file: OBN_DOFe_76x72x24_baltic_128.bin
(PID.TID 0000.0001)  MDS_READ_SEC_XZ: opening global file: OBN_zero_76x72x24_baltic_128.bin
(PID.TID 0000.0001)  MDS_READ_SEC_XZ: opening global file: OBN_zero_76x72x24_baltic_128.bin
(PID.TID 0000.0001)  MDS_READ_SEC_XZ: opening global file: OBN_PON_76x72x24_baltic_128.bin
(PID.TID 0000.0001)  MDS_READ_SEC_XZ: opening global file: OBN_PON_76x72x24_baltic_128.bin
(PID.TID 0000.0001)  MDS_READ_SEC_XZ: opening global file: OBN_POP_76x72x24_baltic_128.bin
(PID.TID 0000.0001)  MDS_READ_SEC_XZ: opening global file: OBN_POP_76x72x24_baltic_128.bin
(PID.TID 0000.0001)  MDS_READ_SEC_XZ: opening global file: OBN_POSi_76x72x24_baltic_128.bin
(PID.TID 0000.0001)  MDS_READ_SEC_XZ: opening global file: OBN_POSi_76x72x24_baltic_128.bin
(PID.TID 0000.0001)  MDS_READ_SEC_XZ: opening global file: OBN_POFe_76x72x24_baltic_128.bin
(PID.TID 0000.0001)  MDS_READ_SEC_XZ: opening global file: OBN_POFe_76x72x24_baltic_128.bin
(PID.TID 0000.0001)  MDS_READ_SEC_XZ: opening global file: OBN_zero_76x72x24_baltic_128.bin
(PID.TID 0000.0001)  MDS_READ_SEC_XZ: opening global file: OBN_zero_76x72x24_baltic_128.bin
(PID.TID 0000.0001)  MDS_READ_SEC_XZ: opening global file: OBN_Phy01_76x72x24_baltic_128.bin
(PID.TID 0000.0001)  MDS_READ_SEC_XZ: opening global file: OBN_Phy01_76x72x24_baltic_128.bin
(PID.TID 0000.0001)  MDS_READ_SEC_XZ: opening global file: OBN_Phy02_76x72x24_baltic_128.bin
(PID.TID 0000.0001)  MDS_READ_SEC_XZ: opening global file: OBN_Phy02_76x72x24_baltic_128.bin
(PID.TID 0000.0001)  MDS_READ_SEC_XZ: opening global file: OBN_Phy03_76x72x24_baltic_128.bin
(PID.TID 0000.0001)  MDS_READ_SEC_XZ: opening global file: OBN_Phy03_76x72x24_baltic_128.bin
(PID.TID 0000.0001)  MDS_READ_SEC_XZ: opening global file: OBN_Phy04_76x72x24_baltic_128.bin
(PID.TID 0000.0001)  MDS_READ_SEC_XZ: opening global file: OBN_Phy04_76x72x24_baltic_128.bin
(PID.TID 0000.0001)  MDS_READ_SEC_XZ: opening global file: OBN_Phy05_76x72x24_baltic_128.bin
(PID.TID 0000.0001)  MDS_READ_SEC_XZ: opening global file: OBN_Phy05_76x72x24_baltic_128.bin
(PID.TID 0000.0001)  MDS_READ_SEC_XZ: opening global file: OBN_Phy06_76x72x24_baltic_128.bin
(PID.TID 0000.0001)  MDS_READ_SEC_XZ: opening global file: OBN_Phy06_76x72x24_baltic_128.bin
(PID.TID 0000.0001)  MDS_READ_SEC_XZ: opening global file: OBN_Phy07_76x72x24_baltic_128.bin
(PID.TID 0000.0001)  MDS_READ_SEC_XZ: opening global file: OBN_Phy07_76x72x24_baltic_128.bin
(PID.TID 0000.0001)  MDS_READ_SEC_XZ: opening global file: OBN_Phy08_76x72x24_baltic_128.bin
(PID.TID 0000.0001)  MDS_READ_SEC_XZ: opening global file: OBN_Phy08_76x72x24_baltic_128.bin
(PID.TID 0000.0001)  MDS_READ_SEC_XZ: opening global file: OBN_Phy09_76x72x24_baltic_128.bin
(PID.TID 0000.0001)  MDS_READ_SEC_XZ: opening global file: OBN_Phy09_76x72x24_baltic_128.bin
(PID.TID 0000.0001)  MDS_READ_SEC_XZ: opening global file: OBN_Phy10_76x72x24_baltic_128.bin
(PID.TID 0000.0001)  MDS_READ_SEC_XZ: opening global file: OBN_Phy10_76x72x24_baltic_128.bin
(PID.TID 0000.0001)  MDS_READ_SEC_XZ: opening global file: OBN_Phy11_76x72x24_baltic_128.bin
(PID.TID 0000.0001)  MDS_READ_SEC_XZ: opening global file: OBN_Phy11_76x72x24_baltic_128.bin
(PID.TID 0000.0001)  MDS_READ_SEC_XZ: opening global file: OBN_Phy12_76x72x24_baltic_128.bin
(PID.TID 0000.0001)  MDS_READ_SEC_XZ: opening global file: OBN_Phy12_76x72x24_baltic_128.bin
(PID.TID 0000.0001)  MDS_READ_SEC_XZ: opening global file: OBN_Phy13_76x72x24_baltic_128.bin
(PID.TID 0000.0001)  MDS_READ_SEC_XZ: opening global file: OBN_Phy13_76x72x24_baltic_128.bin
(PID.TID 0000.0001)  MDS_READ_SEC_XZ: opening global file: OBN_Phy14_76x72x24_baltic_128.bin
(PID.TID 0000.0001)  MDS_READ_SEC_XZ: opening global file: OBN_Phy14_76x72x24_baltic_128.bin
(PID.TID 0000.0001)  MDS_READ_SEC_XZ: opening global file: OBN_Phy15_76x72x24_baltic_128.bin
(PID.TID 0000.0001)  MDS_READ_SEC_XZ: opening global file: OBN_Phy15_76x72x24_baltic_128.bin
(PID.TID 0000.0001)  MDS_READ_SEC_XZ: opening global file: OBN_Phy16_76x72x24_baltic_128.bin
(PID.TID 0000.0001)  MDS_READ_SEC_XZ: opening global file: OBN_Phy16_76x72x24_baltic_128.bin
(PID.TID 0000.0001)  MDS_READ_SEC_XZ: opening global file: OBN_Phy17_76x72x24_baltic_128.bin
(PID.TID 0000.0001)  MDS_READ_SEC_XZ: opening global file: OBN_Phy17_76x72x24_baltic_128.bin
(PID.TID 0000.0001)  MDS_READ_SEC_XZ: opening global file: OBN_Phy18_76x72x24_baltic_128.bin
(PID.TID 0000.0001)  MDS_READ_SEC_XZ: opening global file: OBN_Phy18_76x72x24_baltic_128.bin
(PID.TID 0000.0001)  MDS_READ_SEC_XZ: opening global file: OBN_Phy19_76x72x24_baltic_128.bin
(PID.TID 0000.0001)  MDS_READ_SEC_XZ: opening global file: OBN_Phy19_76x72x24_baltic_128.bin
(PID.TID 0000.0001)  MDS_READ_SEC_XZ: opening global file: OBN_Phy20_76x72x24_baltic_128.bin
(PID.TID 0000.0001)  MDS_READ_SEC_XZ: opening global file: OBN_Phy20_76x72x24_baltic_128.bin
(PID.TID 0000.0001)  MDS_READ_SEC_XZ: opening global file: OBN_Phy21_76x72x24_baltic_128.bin
(PID.TID 0000.0001)  MDS_READ_SEC_XZ: opening global file: OBN_Phy21_76x72x24_baltic_128.bin
(PID.TID 0000.0001)  MDS_READ_SEC_XZ: opening global file: OBN_Phy22_76x72x24_baltic_128.bin
(PID.TID 0000.0001)  MDS_READ_SEC_XZ: opening global file: OBN_Phy22_76x72x24_baltic_128.bin
(PID.TID 0000.0001)  MDS_READ_SEC_XZ: opening global file: OBN_Phy23_76x72x24_baltic_128.bin
(PID.TID 0000.0001)  MDS_READ_SEC_XZ: opening global file: OBN_Phy23_76x72x24_baltic_128.bin
(PID.TID 0000.0001)  MDS_READ_SEC_XZ: opening global file: OBN_Phy24_76x72x24_baltic_128.bin
(PID.TID 0000.0001)  MDS_READ_SEC_XZ: opening global file: OBN_Phy24_76x72x24_baltic_128.bin
(PID.TID 0000.0001)  MDS_READ_SEC_XZ: opening global file: OBN_Phy25_76x72x24_baltic_128.bin
(PID.TID 0000.0001)  MDS_READ_SEC_XZ: opening global file: OBN_Phy25_76x72x24_baltic_128.bin
(PID.TID 0000.0001)  MDS_READ_SEC_XZ: opening global file: OBN_Phy26_76x72x24_baltic_128.bin
(PID.TID 0000.0001)  MDS_READ_SEC_XZ: opening global file: OBN_Phy26_76x72x24_baltic_128.bin
(PID.TID 0000.0001)  MDS_READ_SEC_XZ: opening global file: OBN_Phy27_76x72x24_baltic_128.bin
(PID.TID 0000.0001)  MDS_READ_SEC_XZ: opening global file: OBN_Phy27_76x72x24_baltic_128.bin
(PID.TID 0000.0001)  MDS_READ_SEC_XZ: opening global file: OBN_Phy28_76x72x24_baltic_128.bin
(PID.TID 0000.0001)  MDS_READ_SEC_XZ: opening global file: OBN_Phy28_76x72x24_baltic_128.bin
(PID.TID 0000.0001)  MDS_READ_SEC_XZ: opening global file: OBN_Phy29_76x72x24_baltic_128.bin
(PID.TID 0000.0001)  MDS_READ_SEC_XZ: opening global file: OBN_Phy29_76x72x24_baltic_128.bin
(PID.TID 0000.0001)  MDS_READ_SEC_XZ: opening global file: OBN_Phy30_76x72x24_baltic_128.bin
(PID.TID 0000.0001)  MDS_READ_SEC_XZ: opening global file: OBN_Phy30_76x72x24_baltic_128.bin
(PID.TID 0000.0001)  MDS_READ_SEC_XZ: opening global file: OBN_Phy31_76x72x24_baltic_128.bin
(PID.TID 0000.0001)  MDS_READ_SEC_XZ: opening global file: OBN_Phy31_76x72x24_baltic_128.bin
(PID.TID 0000.0001)  MDS_READ_SEC_XZ: opening global file: OBN_Phy32_76x72x24_baltic_128.bin
(PID.TID 0000.0001)  MDS_READ_SEC_XZ: opening global file: OBN_Phy32_76x72x24_baltic_128.bin
(PID.TID 0000.0001)  MDS_READ_SEC_XZ: opening global file: OBN_Phy33_76x72x24_baltic_128.bin
(PID.TID 0000.0001)  MDS_READ_SEC_XZ: opening global file: OBN_Phy33_76x72x24_baltic_128.bin
(PID.TID 0000.0001)  MDS_READ_SEC_XZ: opening global file: OBN_Phy34_76x72x24_baltic_128.bin
(PID.TID 0000.0001)  MDS_READ_SEC_XZ: opening global file: OBN_Phy34_76x72x24_baltic_128.bin
(PID.TID 0000.0001)  MDS_READ_SEC_XZ: opening global file: OBN_Phy35_76x72x24_baltic_128.bin
(PID.TID 0000.0001)  MDS_READ_SEC_XZ: opening global file: OBN_Phy35_76x72x24_baltic_128.bin
(PID.TID 0000.0001)  MDS_READ_SEC_XZ: opening global file: OBN_Phy36_76x72x24_baltic_128.bin
(PID.TID 0000.0001)  MDS_READ_SEC_XZ: opening global file: OBN_Phy36_76x72x24_baltic_128.bin
(PID.TID 0000.0001)  MDS_READ_SEC_XZ: opening global file: OBN_Phy37_76x72x24_baltic_128.bin
(PID.TID 0000.0001)  MDS_READ_SEC_XZ: opening global file: OBN_Phy37_76x72x24_baltic_128.bin
(PID.TID 0000.0001)  MDS_READ_SEC_XZ: opening global file: OBN_Phy38_76x72x24_baltic_128.bin
(PID.TID 0000.0001)  MDS_READ_SEC_XZ: opening global file: OBN_Phy38_76x72x24_baltic_128.bin
(PID.TID 0000.0001)  MDS_READ_SEC_XZ: opening global file: OBN_Phy39_76x72x24_baltic_128.bin
(PID.TID 0000.0001)  MDS_READ_SEC_XZ: opening global file: OBN_Phy39_76x72x24_baltic_128.bin
(PID.TID 0000.0001)  MDS_READ_SEC_XZ: opening global file: OBN_Phy40_76x72x24_baltic_128.bin
(PID.TID 0000.0001)  MDS_READ_SEC_XZ: opening global file: OBN_Phy40_76x72x24_baltic_128.bin
(PID.TID 0000.0001)  MDS_READ_SEC_XZ: opening global file: OBN_Phy41_76x72x24_baltic_128.bin
(PID.TID 0000.0001)  MDS_READ_SEC_XZ: opening global file: OBN_Phy41_76x72x24_baltic_128.bin
(PID.TID 0000.0001)  MDS_READ_SEC_XZ: opening global file: OBN_Phy42_76x72x24_baltic_128.bin
(PID.TID 0000.0001)  MDS_READ_SEC_XZ: opening global file: OBN_Phy42_76x72x24_baltic_128.bin
(PID.TID 0000.0001)  MDS_READ_SEC_XZ: opening global file: OBN_Phy43_76x72x24_baltic_128.bin
(PID.TID 0000.0001)  MDS_READ_SEC_XZ: opening global file: OBN_Phy43_76x72x24_baltic_128.bin
(PID.TID 0000.0001)  MDS_READ_SEC_XZ: opening global file: OBN_Phy44_76x72x24_baltic_128.bin
(PID.TID 0000.0001)  MDS_READ_SEC_XZ: opening global file: OBN_Phy44_76x72x24_baltic_128.bin
(PID.TID 0000.0001)  MDS_READ_SEC_XZ: opening global file: OBN_Phy45_76x72x24_baltic_128.bin
(PID.TID 0000.0001)  MDS_READ_SEC_XZ: opening global file: OBN_Phy45_76x72x24_baltic_128.bin
(PID.TID 0000.0001)  MDS_READ_SEC_XZ: opening global file: OBN_Phy46_76x72x24_baltic_128.bin
(PID.TID 0000.0001)  MDS_READ_SEC_XZ: opening global file: OBN_Phy46_76x72x24_baltic_128.bin
(PID.TID 0000.0001)  MDS_READ_SEC_XZ: opening global file: OBN_Phy47_76x72x24_baltic_128.bin
(PID.TID 0000.0001)  MDS_READ_SEC_XZ: opening global file: OBN_Phy47_76x72x24_baltic_128.bin
(PID.TID 0000.0001)  MDS_READ_SEC_XZ: opening global file: OBN_Phy48_76x72x24_baltic_128.bin
(PID.TID 0000.0001)  MDS_READ_SEC_XZ: opening global file: OBN_Phy48_76x72x24_baltic_128.bin
(PID.TID 0000.0001)  MDS_READ_SEC_XZ: opening global file: OBN_Phy49_76x72x24_baltic_128.bin
(PID.TID 0000.0001)  MDS_READ_SEC_XZ: opening global file: OBN_Phy49_76x72x24_baltic_128.bin
(PID.TID 0000.0001)  MDS_READ_SEC_XZ: opening global file: OBN_Phy50_76x72x24_baltic_128.bin
(PID.TID 0000.0001)  MDS_READ_SEC_XZ: opening global file: OBN_Phy50_76x72x24_baltic_128.bin
(PID.TID 0000.0001)  MDS_READ_SEC_XZ: opening global file: OBN_Phy51_76x72x24_baltic_128.bin
(PID.TID 0000.0001)  MDS_READ_SEC_XZ: opening global file: OBN_Phy51_76x72x24_baltic_128.bin
(PID.TID 0000.0001)  MDS_READ_SEC_XZ: opening global file: OBN_Phy52_76x72x24_baltic_128.bin
(PID.TID 0000.0001)  MDS_READ_SEC_XZ: opening global file: OBN_Phy52_76x72x24_baltic_128.bin
(PID.TID 0000.0001)  MDS_READ_SEC_XZ: opening global file: OBN_Phy53_76x72x24_baltic_128.bin
(PID.TID 0000.0001)  MDS_READ_SEC_XZ: opening global file: OBN_Phy53_76x72x24_baltic_128.bin
(PID.TID 0000.0001)  MDS_READ_SEC_XZ: opening global file: OBN_Phy54_76x72x24_baltic_128.bin
(PID.TID 0000.0001)  MDS_READ_SEC_XZ: opening global file: OBN_Phy54_76x72x24_baltic_128.bin
(PID.TID 0000.0001)  MDS_READ_SEC_XZ: opening global file: OBN_Phy55_76x72x24_baltic_128.bin
(PID.TID 0000.0001)  MDS_READ_SEC_XZ: opening global file: OBN_Phy55_76x72x24_baltic_128.bin
(PID.TID 0000.0001)  MDS_READ_SEC_XZ: opening global file: OBN_Phy56_76x72x24_baltic_128.bin
(PID.TID 0000.0001)  MDS_READ_SEC_XZ: opening global file: OBN_Phy56_76x72x24_baltic_128.bin
(PID.TID 0000.0001)  MDS_READ_SEC_XZ: opening global file: OBN_Phy57_76x72x24_baltic_128.bin
(PID.TID 0000.0001)  MDS_READ_SEC_XZ: opening global file: OBN_Phy57_76x72x24_baltic_128.bin
(PID.TID 0000.0001)  MDS_READ_SEC_XZ: opening global file: OBN_Phy58_76x72x24_baltic_128.bin
(PID.TID 0000.0001)  MDS_READ_SEC_XZ: opening global file: OBN_Phy58_76x72x24_baltic_128.bin
(PID.TID 0000.0001)  MDS_READ_SEC_XZ: opening global file: OBN_Phy59_76x72x24_baltic_128.bin
(PID.TID 0000.0001)  MDS_READ_SEC_XZ: opening global file: OBN_Phy59_76x72x24_baltic_128.bin
(PID.TID 0000.0001)  MDS_READ_SEC_XZ: opening global file: OBN_Phy60_76x72x24_baltic_128.bin
(PID.TID 0000.0001)  MDS_READ_SEC_XZ: opening global file: OBN_Phy60_76x72x24_baltic_128.bin
(PID.TID 0000.0001)  MDS_READ_SEC_XZ: opening global file: OBN_Phy61_76x72x24_baltic_128.bin
(PID.TID 0000.0001)  MDS_READ_SEC_XZ: opening global file: OBN_Phy61_76x72x24_baltic_128.bin
(PID.TID 0000.0001)  MDS_READ_SEC_XZ: opening global file: OBN_Phy62_76x72x24_baltic_128.bin
(PID.TID 0000.0001)  MDS_READ_SEC_XZ: opening global file: OBN_Phy62_76x72x24_baltic_128.bin
(PID.TID 0000.0001)  MDS_READ_SEC_XZ: opening global file: OBN_Phy63_76x72x24_baltic_128.bin
(PID.TID 0000.0001)  MDS_READ_SEC_XZ: opening global file: OBN_Phy63_76x72x24_baltic_128.bin
(PID.TID 0000.0001)  MDS_READ_SEC_XZ: opening global file: OBN_Phy64_76x72x24_baltic_128.bin
(PID.TID 0000.0001)  MDS_READ_SEC_XZ: opening global file: OBN_Phy64_76x72x24_baltic_128.bin
(PID.TID 0000.0001)  MDS_READ_SEC_XZ: opening global file: OBN_Phy65_76x72x24_baltic_128.bin
(PID.TID 0000.0001)  MDS_READ_SEC_XZ: opening global file: OBN_Phy65_76x72x24_baltic_128.bin
(PID.TID 0000.0001)  MDS_READ_SEC_XZ: opening global file: OBN_Phy66_76x72x24_baltic_128.bin
(PID.TID 0000.0001)  MDS_READ_SEC_XZ: opening global file: OBN_Phy66_76x72x24_baltic_128.bin
(PID.TID 0000.0001)  MDS_READ_SEC_XZ: opening global file: OBN_Phy67_76x72x24_baltic_128.bin
(PID.TID 0000.0001)  MDS_READ_SEC_XZ: opening global file: OBN_Phy67_76x72x24_baltic_128.bin
(PID.TID 0000.0001)  MDS_READ_SEC_XZ: opening global file: OBN_Phy68_76x72x24_baltic_128.bin
(PID.TID 0000.0001)  MDS_READ_SEC_XZ: opening global file: OBN_Phy68_76x72x24_baltic_128.bin
(PID.TID 0000.0001)  MDS_READ_SEC_XZ: opening global file: OBN_Phy69_76x72x24_baltic_128.bin
(PID.TID 0000.0001)  MDS_READ_SEC_XZ: opening global file: OBN_Phy69_76x72x24_baltic_128.bin
(PID.TID 0000.0001)  MDS_READ_SEC_XZ: opening global file: OBN_Phy70_76x72x24_baltic_128.bin
(PID.TID 0000.0001)  MDS_READ_SEC_XZ: opening global file: OBN_Phy70_76x72x24_baltic_128.bin
(PID.TID 0000.0001)  MDS_READ_SEC_XZ: opening global file: OBN_Phy71_76x72x24_baltic_128.bin
(PID.TID 0000.0001)  MDS_READ_SEC_XZ: opening global file: OBN_Phy71_76x72x24_baltic_128.bin
(PID.TID 0000.0001)  MDS_READ_SEC_XZ: opening global file: OBN_Phy72_76x72x24_baltic_128.bin
(PID.TID 0000.0001)  MDS_READ_SEC_XZ: opening global file: OBN_Phy72_76x72x24_baltic_128.bin
(PID.TID 0000.0001)  MDS_READ_SEC_XZ: opening global file: OBN_Phy73_76x72x24_baltic_128.bin
(PID.TID 0000.0001)  MDS_READ_SEC_XZ: opening global file: OBN_Phy73_76x72x24_baltic_128.bin
(PID.TID 0000.0001)  MDS_READ_SEC_XZ: opening global file: OBN_Phy74_76x72x24_baltic_128.bin
(PID.TID 0000.0001)  MDS_READ_SEC_XZ: opening global file: OBN_Phy74_76x72x24_baltic_128.bin
(PID.TID 0000.0001)  MDS_READ_SEC_XZ: opening global file: OBN_Phy75_76x72x24_baltic_128.bin
(PID.TID 0000.0001)  MDS_READ_SEC_XZ: opening global file: OBN_Phy75_76x72x24_baltic_128.bin
(PID.TID 0000.0001)  MDS_READ_SEC_XZ: opening global file: OBN_Phy76_76x72x24_baltic_128.bin
(PID.TID 0000.0001)  MDS_READ_SEC_XZ: opening global file: OBN_Phy76_76x72x24_baltic_128.bin
(PID.TID 0000.0001)  MDS_READ_SEC_XZ: opening global file: OBN_Phy77_76x72x24_baltic_128.bin
(PID.TID 0000.0001)  MDS_READ_SEC_XZ: opening global file: OBN_Phy77_76x72x24_baltic_128.bin
(PID.TID 0000.0001)  MDS_READ_SEC_XZ: opening global file: OBN_Phy78_76x72x24_baltic_128.bin
(PID.TID 0000.0001)  MDS_READ_SEC_XZ: opening global file: OBN_Phy78_76x72x24_baltic_128.bin
(PID.TID 0000.0001)  MDS_READ_SEC_XZ: opening global file: OBN_ZOO1P_76x72x24_baltic_128.bin
(PID.TID 0000.0001)  MDS_READ_SEC_XZ: opening global file: OBN_ZOO1P_76x72x24_baltic_128.bin
(PID.TID 0000.0001)  MDS_READ_SEC_XZ: opening global file: OBN_ZOO2P_76x72x24_baltic_128.bin
(PID.TID 0000.0001)  MDS_READ_SEC_XZ: opening global file: OBN_ZOO2P_76x72x24_baltic_128.bin
(PID.TID 0000.0001)  MDS_READ_SEC_YZ: opening global file: OBWu_baltic_76x72.bin
(PID.TID 0000.0001)  MDS_READ_SEC_YZ: opening global file: OBWu_baltic_76x72.bin
(PID.TID 0000.0001)  MDS_READ_SEC_YZ: opening global file: OBWv_baltic_76x72.bin
(PID.TID 0000.0001)  MDS_READ_SEC_YZ: opening global file: OBWv_baltic_76x72.bin
(PID.TID 0000.0001)  MDS_READ_SEC_YZ: opening global file: OBWt_baltic_76x72.stable
(PID.TID 0000.0001)  MDS_READ_SEC_YZ: opening global file: OBWt_baltic_76x72.stable
(PID.TID 0000.0001)  MDS_READ_SEC_YZ: opening global file: OBWs_baltic_76x72.stable
(PID.TID 0000.0001)  MDS_READ_SEC_YZ: opening global file: OBWs_baltic_76x72.stable
(PID.TID 0000.0001)  MDS_READ_SEC_YZ: opening global file: OBW_DIC_76x72x24_baltic_128.bin
(PID.TID 0000.0001)  MDS_READ_SEC_YZ: opening global file: OBW_DIC_76x72x24_baltic_128.bin
(PID.TID 0000.0001)  MDS_READ_SEC_YZ: opening global file: OBW_NH4_76x72x24_baltic_128.bin
(PID.TID 0000.0001)  MDS_READ_SEC_YZ: opening global file: OBW_NH4_76x72x24_baltic_128.bin
(PID.TID 0000.0001)  MDS_READ_SEC_YZ: opening global file: OBW_NO2_76x72x24_baltic_128.bin
(PID.TID 0000.0001)  MDS_READ_SEC_YZ: opening global file: OBW_NO2_76x72x24_baltic_128.bin
(PID.TID 0000.0001)  MDS_READ_SEC_YZ: opening global file: OBW_NO3_76x72x24_baltic_128.bin
(PID.TID 0000.0001)  MDS_READ_SEC_YZ: opening global file: OBW_NO3_76x72x24_baltic_128.bin
(PID.TID 0000.0001)  MDS_READ_SEC_YZ: opening global file: OBW_PO4_76x72x24_baltic_128.bin
(PID.TID 0000.0001)  MDS_READ_SEC_YZ: opening global file: OBW_PO4_76x72x24_baltic_128.bin
(PID.TID 0000.0001)  MDS_READ_SEC_YZ: opening global file: OBW_SiO2_76x72x24_baltic_128.bin
(PID.TID 0000.0001)  MDS_READ_SEC_YZ: opening global file: OBW_SiO2_76x72x24_baltic_128.bin
(PID.TID 0000.0001)  MDS_READ_SEC_YZ: opening global file: OBW_FeT_76x72x24_baltic_128.bin
(PID.TID 0000.0001)  MDS_READ_SEC_YZ: opening global file: OBW_FeT_76x72x24_baltic_128.bin
(PID.TID 0000.0001)  MDS_READ_SEC_YZ: opening global file: OBW_zero_76x72x24_baltic_128.bin
(PID.TID 0000.0001)  MDS_READ_SEC_YZ: opening global file: OBW_zero_76x72x24_baltic_128.bin
(PID.TID 0000.0001)  MDS_READ_SEC_YZ: opening global file: OBW_DON_76x72x24_baltic_128.bin
(PID.TID 0000.0001)  MDS_READ_SEC_YZ: opening global file: OBW_DON_76x72x24_baltic_128.bin
(PID.TID 0000.0001)  MDS_READ_SEC_YZ: opening global file: OBW_DOP_76x72x24_baltic_128.bin
(PID.TID 0000.0001)  MDS_READ_SEC_YZ: opening global file: OBW_DOP_76x72x24_baltic_128.bin
(PID.TID 0000.0001)  MDS_READ_SEC_YZ: opening global file: OBW_DOFe_76x72x24_baltic_128.bin
(PID.TID 0000.0001)  MDS_READ_SEC_YZ: opening global file: OBW_DOFe_76x72x24_baltic_128.bin
(PID.TID 0000.0001)  MDS_READ_SEC_YZ: opening global file: OBW_zero_76x72x24_baltic_128.bin
(PID.TID 0000.0001)  MDS_READ_SEC_YZ: opening global file: OBW_zero_76x72x24_baltic_128.bin
(PID.TID 0000.0001)  MDS_READ_SEC_YZ: opening global file: OBW_PON_76x72x24_baltic_128.bin
(PID.TID 0000.0001)  MDS_READ_SEC_YZ: opening global file: OBW_PON_76x72x24_baltic_128.bin
(PID.TID 0000.0001)  MDS_READ_SEC_YZ: opening global file: OBW_POP_76x72x24_baltic_128.bin
(PID.TID 0000.0001)  MDS_READ_SEC_YZ: opening global file: OBW_POP_76x72x24_baltic_128.bin
(PID.TID 0000.0001)  MDS_READ_SEC_YZ: opening global file: OBW_POSi_76x72x24_baltic_128.bin
(PID.TID 0000.0001)  MDS_READ_SEC_YZ: opening global file: OBW_POSi_76x72x24_baltic_128.bin
(PID.TID 0000.0001)  MDS_READ_SEC_YZ: opening global file: OBW_POFe_76x72x24_baltic_128.bin
(PID.TID 0000.0001)  MDS_READ_SEC_YZ: opening global file: OBW_POFe_76x72x24_baltic_128.bin
(PID.TID 0000.0001)  MDS_READ_SEC_YZ: opening global file: OBW_zero_76x72x24_baltic_128.bin
(PID.TID 0000.0001)  MDS_READ_SEC_YZ: opening global file: OBW_zero_76x72x24_baltic_128.bin
(PID.TID 0000.0001)  MDS_READ_SEC_YZ: opening global file: OBW_Phy01_76x72x24_baltic_128.bin
(PID.TID 0000.0001)  MDS_READ_SEC_YZ: opening global file: OBW_Phy01_76x72x24_baltic_128.bin
(PID.TID 0000.0001)  MDS_READ_SEC_YZ: opening global file: OBW_Phy02_76x72x24_baltic_128.bin
(PID.TID 0000.0001)  MDS_READ_SEC_YZ: opening global file: OBW_Phy02_76x72x24_baltic_128.bin
(PID.TID 0000.0001)  MDS_READ_SEC_YZ: opening global file: OBW_Phy03_76x72x24_baltic_128.bin
(PID.TID 0000.0001)  MDS_READ_SEC_YZ: opening global file: OBW_Phy03_76x72x24_baltic_128.bin
(PID.TID 0000.0001)  MDS_READ_SEC_YZ: opening global file: OBW_Phy04_76x72x24_baltic_128.bin
(PID.TID 0000.0001)  MDS_READ_SEC_YZ: opening global file: OBW_Phy04_76x72x24_baltic_128.bin
(PID.TID 0000.0001)  MDS_READ_SEC_YZ: opening global file: OBW_Phy05_76x72x24_baltic_128.bin
(PID.TID 0000.0001)  MDS_READ_SEC_YZ: opening global file: OBW_Phy05_76x72x24_baltic_128.bin
(PID.TID 0000.0001)  MDS_READ_SEC_YZ: opening global file: OBW_Phy06_76x72x24_baltic_128.bin
(PID.TID 0000.0001)  MDS_READ_SEC_YZ: opening global file: OBW_Phy06_76x72x24_baltic_128.bin
(PID.TID 0000.0001)  MDS_READ_SEC_YZ: opening global file: OBW_Phy07_76x72x24_baltic_128.bin
(PID.TID 0000.0001)  MDS_READ_SEC_YZ: opening global file: OBW_Phy07_76x72x24_baltic_128.bin
(PID.TID 0000.0001)  MDS_READ_SEC_YZ: opening global file: OBW_Phy08_76x72x24_baltic_128.bin
(PID.TID 0000.0001)  MDS_READ_SEC_YZ: opening global file: OBW_Phy08_76x72x24_baltic_128.bin
(PID.TID 0000.0001)  MDS_READ_SEC_YZ: opening global file: OBW_Phy09_76x72x24_baltic_128.bin
(PID.TID 0000.0001)  MDS_READ_SEC_YZ: opening global file: OBW_Phy09_76x72x24_baltic_128.bin
(PID.TID 0000.0001)  MDS_READ_SEC_YZ: opening global file: OBW_Phy10_76x72x24_baltic_128.bin
(PID.TID 0000.0001)  MDS_READ_SEC_YZ: opening global file: OBW_Phy10_76x72x24_baltic_128.bin
(PID.TID 0000.0001)  MDS_READ_SEC_YZ: opening global file: OBW_Phy11_76x72x24_baltic_128.bin
(PID.TID 0000.0001)  MDS_READ_SEC_YZ: opening global file: OBW_Phy11_76x72x24_baltic_128.bin
(PID.TID 0000.0001)  MDS_READ_SEC_YZ: opening global file: OBW_Phy12_76x72x24_baltic_128.bin
(PID.TID 0000.0001)  MDS_READ_SEC_YZ: opening global file: OBW_Phy12_76x72x24_baltic_128.bin
(PID.TID 0000.0001)  MDS_READ_SEC_YZ: opening global file: OBW_Phy13_76x72x24_baltic_128.bin
(PID.TID 0000.0001)  MDS_READ_SEC_YZ: opening global file: OBW_Phy13_76x72x24_baltic_128.bin
(PID.TID 0000.0001)  MDS_READ_SEC_YZ: opening global file: OBW_Phy14_76x72x24_baltic_128.bin
(PID.TID 0000.0001)  MDS_READ_SEC_YZ: opening global file: OBW_Phy14_76x72x24_baltic_128.bin
(PID.TID 0000.0001)  MDS_READ_SEC_YZ: opening global file: OBW_Phy15_76x72x24_baltic_128.bin
(PID.TID 0000.0001)  MDS_READ_SEC_YZ: opening global file: OBW_Phy15_76x72x24_baltic_128.bin
(PID.TID 0000.0001)  MDS_READ_SEC_YZ: opening global file: OBW_Phy16_76x72x24_baltic_128.bin
(PID.TID 0000.0001)  MDS_READ_SEC_YZ: opening global file: OBW_Phy16_76x72x24_baltic_128.bin
(PID.TID 0000.0001)  MDS_READ_SEC_YZ: opening global file: OBW_Phy17_76x72x24_baltic_128.bin
(PID.TID 0000.0001)  MDS_READ_SEC_YZ: opening global file: OBW_Phy17_76x72x24_baltic_128.bin
(PID.TID 0000.0001)  MDS_READ_SEC_YZ: opening global file: OBW_Phy18_76x72x24_baltic_128.bin
(PID.TID 0000.0001)  MDS_READ_SEC_YZ: opening global file: OBW_Phy18_76x72x24_baltic_128.bin
(PID.TID 0000.0001)  MDS_READ_SEC_YZ: opening global file: OBW_Phy19_76x72x24_baltic_128.bin
(PID.TID 0000.0001)  MDS_READ_SEC_YZ: opening global file: OBW_Phy19_76x72x24_baltic_128.bin
(PID.TID 0000.0001)  MDS_READ_SEC_YZ: opening global file: OBW_Phy20_76x72x24_baltic_128.bin
(PID.TID 0000.0001)  MDS_READ_SEC_YZ: opening global file: OBW_Phy20_76x72x24_baltic_128.bin
(PID.TID 0000.0001)  MDS_READ_SEC_YZ: opening global file: OBW_Phy21_76x72x24_baltic_128.bin
(PID.TID 0000.0001)  MDS_READ_SEC_YZ: opening global file: OBW_Phy21_76x72x24_baltic_128.bin
(PID.TID 0000.0001)  MDS_READ_SEC_YZ: opening global file: OBW_Phy22_76x72x24_baltic_128.bin
(PID.TID 0000.0001)  MDS_READ_SEC_YZ: opening global file: OBW_Phy22_76x72x24_baltic_128.bin
(PID.TID 0000.0001)  MDS_READ_SEC_YZ: opening global file: OBW_Phy23_76x72x24_baltic_128.bin
(PID.TID 0000.0001)  MDS_READ_SEC_YZ: opening global file: OBW_Phy23_76x72x24_baltic_128.bin
(PID.TID 0000.0001)  MDS_READ_SEC_YZ: opening global file: OBW_Phy24_76x72x24_baltic_128.bin
(PID.TID 0000.0001)  MDS_READ_SEC_YZ: opening global file: OBW_Phy24_76x72x24_baltic_128.bin
(PID.TID 0000.0001)  MDS_READ_SEC_YZ: opening global file: OBW_Phy25_76x72x24_baltic_128.bin
(PID.TID 0000.0001)  MDS_READ_SEC_YZ: opening global file: OBW_Phy25_76x72x24_baltic_128.bin
(PID.TID 0000.0001)  MDS_READ_SEC_YZ: opening global file: OBW_Phy26_76x72x24_baltic_128.bin
(PID.TID 0000.0001)  MDS_READ_SEC_YZ: opening global file: OBW_Phy26_76x72x24_baltic_128.bin
(PID.TID 0000.0001)  MDS_READ_SEC_YZ: opening global file: OBW_Phy27_76x72x24_baltic_128.bin
(PID.TID 0000.0001)  MDS_READ_SEC_YZ: opening global file: OBW_Phy27_76x72x24_baltic_128.bin
(PID.TID 0000.0001)  MDS_READ_SEC_YZ: opening global file: OBW_Phy28_76x72x24_baltic_128.bin
(PID.TID 0000.0001)  MDS_READ_SEC_YZ: opening global file: OBW_Phy28_76x72x24_baltic_128.bin
(PID.TID 0000.0001)  MDS_READ_SEC_YZ: opening global file: OBW_Phy29_76x72x24_baltic_128.bin
(PID.TID 0000.0001)  MDS_READ_SEC_YZ: opening global file: OBW_Phy29_76x72x24_baltic_128.bin
(PID.TID 0000.0001)  MDS_READ_SEC_YZ: opening global file: OBW_Phy30_76x72x24_baltic_128.bin
(PID.TID 0000.0001)  MDS_READ_SEC_YZ: opening global file: OBW_Phy30_76x72x24_baltic_128.bin
(PID.TID 0000.0001)  MDS_READ_SEC_YZ: opening global file: OBW_Phy31_76x72x24_baltic_128.bin
(PID.TID 0000.0001)  MDS_READ_SEC_YZ: opening global file: OBW_Phy31_76x72x24_baltic_128.bin
(PID.TID 0000.0001)  MDS_READ_SEC_YZ: opening global file: OBW_Phy32_76x72x24_baltic_128.bin
(PID.TID 0000.0001)  MDS_READ_SEC_YZ: opening global file: OBW_Phy32_76x72x24_baltic_128.bin
(PID.TID 0000.0001)  MDS_READ_SEC_YZ: opening global file: OBW_Phy33_76x72x24_baltic_128.bin
(PID.TID 0000.0001)  MDS_READ_SEC_YZ: opening global file: OBW_Phy33_76x72x24_baltic_128.bin
(PID.TID 0000.0001)  MDS_READ_SEC_YZ: opening global file: OBW_Phy34_76x72x24_baltic_128.bin
(PID.TID 0000.0001)  MDS_READ_SEC_YZ: opening global file: OBW_Phy34_76x72x24_baltic_128.bin
(PID.TID 0000.0001)  MDS_READ_SEC_YZ: opening global file: OBW_Phy35_76x72x24_baltic_128.bin
(PID.TID 0000.0001)  MDS_READ_SEC_YZ: opening global file: OBW_Phy35_76x72x24_baltic_128.bin
(PID.TID 0000.0001)  MDS_READ_SEC_YZ: opening global file: OBW_Phy36_76x72x24_baltic_128.bin
(PID.TID 0000.0001)  MDS_READ_SEC_YZ: opening global file: OBW_Phy36_76x72x24_baltic_128.bin
(PID.TID 0000.0001)  MDS_READ_SEC_YZ: opening global file: OBW_Phy37_76x72x24_baltic_128.bin
(PID.TID 0000.0001)  MDS_READ_SEC_YZ: opening global file: OBW_Phy37_76x72x24_baltic_128.bin
(PID.TID 0000.0001)  MDS_READ_SEC_YZ: opening global file: OBW_Phy38_76x72x24_baltic_128.bin
(PID.TID 0000.0001)  MDS_READ_SEC_YZ: opening global file: OBW_Phy38_76x72x24_baltic_128.bin
(PID.TID 0000.0001)  MDS_READ_SEC_YZ: opening global file: OBW_Phy39_76x72x24_baltic_128.bin
(PID.TID 0000.0001)  MDS_READ_SEC_YZ: opening global file: OBW_Phy39_76x72x24_baltic_128.bin
(PID.TID 0000.0001)  MDS_READ_SEC_YZ: opening global file: OBW_Phy40_76x72x24_baltic_128.bin
(PID.TID 0000.0001)  MDS_READ_SEC_YZ: opening global file: OBW_Phy40_76x72x24_baltic_128.bin
(PID.TID 0000.0001)  MDS_READ_SEC_YZ: opening global file: OBW_Phy41_76x72x24_baltic_128.bin
(PID.TID 0000.0001)  MDS_READ_SEC_YZ: opening global file: OBW_Phy41_76x72x24_baltic_128.bin
(PID.TID 0000.0001)  MDS_READ_SEC_YZ: opening global file: OBW_Phy42_76x72x24_baltic_128.bin
(PID.TID 0000.0001)  MDS_READ_SEC_YZ: opening global file: OBW_Phy42_76x72x24_baltic_128.bin
(PID.TID 0000.0001)  MDS_READ_SEC_YZ: opening global file: OBW_Phy43_76x72x24_baltic_128.bin
(PID.TID 0000.0001)  MDS_READ_SEC_YZ: opening global file: OBW_Phy43_76x72x24_baltic_128.bin
(PID.TID 0000.0001)  MDS_READ_SEC_YZ: opening global file: OBW_Phy44_76x72x24_baltic_128.bin
(PID.TID 0000.0001)  MDS_READ_SEC_YZ: opening global file: OBW_Phy44_76x72x24_baltic_128.bin
(PID.TID 0000.0001)  MDS_READ_SEC_YZ: opening global file: OBW_Phy45_76x72x24_baltic_128.bin
(PID.TID 0000.0001)  MDS_READ_SEC_YZ: opening global file: OBW_Phy45_76x72x24_baltic_128.bin
(PID.TID 0000.0001)  MDS_READ_SEC_YZ: opening global file: OBW_Phy46_76x72x24_baltic_128.bin
(PID.TID 0000.0001)  MDS_READ_SEC_YZ: opening global file: OBW_Phy46_76x72x24_baltic_128.bin
(PID.TID 0000.0001)  MDS_READ_SEC_YZ: opening global file: OBW_Phy47_76x72x24_baltic_128.bin
(PID.TID 0000.0001)  MDS_READ_SEC_YZ: opening global file: OBW_Phy47_76x72x24_baltic_128.bin
(PID.TID 0000.0001)  MDS_READ_SEC_YZ: opening global file: OBW_Phy48_76x72x24_baltic_128.bin
(PID.TID 0000.0001)  MDS_READ_SEC_YZ: opening global file: OBW_Phy48_76x72x24_baltic_128.bin
(PID.TID 0000.0001)  MDS_READ_SEC_YZ: opening global file: OBW_Phy49_76x72x24_baltic_128.bin
(PID.TID 0000.0001)  MDS_READ_SEC_YZ: opening global file: OBW_Phy49_76x72x24_baltic_128.bin
(PID.TID 0000.0001)  MDS_READ_SEC_YZ: opening global file: OBW_Phy50_76x72x24_baltic_128.bin
(PID.TID 0000.0001)  MDS_READ_SEC_YZ: opening global file: OBW_Phy50_76x72x24_baltic_128.bin
(PID.TID 0000.0001)  MDS_READ_SEC_YZ: opening global file: OBW_Phy51_76x72x24_baltic_128.bin
(PID.TID 0000.0001)  MDS_READ_SEC_YZ: opening global file: OBW_Phy51_76x72x24_baltic_128.bin
(PID.TID 0000.0001)  MDS_READ_SEC_YZ: opening global file: OBW_Phy52_76x72x24_baltic_128.bin
(PID.TID 0000.0001)  MDS_READ_SEC_YZ: opening global file: OBW_Phy52_76x72x24_baltic_128.bin
(PID.TID 0000.0001)  MDS_READ_SEC_YZ: opening global file: OBW_Phy53_76x72x24_baltic_128.bin
(PID.TID 0000.0001)  MDS_READ_SEC_YZ: opening global file: OBW_Phy53_76x72x24_baltic_128.bin
(PID.TID 0000.0001)  MDS_READ_SEC_YZ: opening global file: OBW_Phy54_76x72x24_baltic_128.bin
(PID.TID 0000.0001)  MDS_READ_SEC_YZ: opening global file: OBW_Phy54_76x72x24_baltic_128.bin
(PID.TID 0000.0001)  MDS_READ_SEC_YZ: opening global file: OBW_Phy55_76x72x24_baltic_128.bin
(PID.TID 0000.0001)  MDS_READ_SEC_YZ: opening global file: OBW_Phy55_76x72x24_baltic_128.bin
(PID.TID 0000.0001)  MDS_READ_SEC_YZ: opening global file: OBW_Phy56_76x72x24_baltic_128.bin
(PID.TID 0000.0001)  MDS_READ_SEC_YZ: opening global file: OBW_Phy56_76x72x24_baltic_128.bin
(PID.TID 0000.0001)  MDS_READ_SEC_YZ: opening global file: OBW_Phy57_76x72x24_baltic_128.bin
(PID.TID 0000.0001)  MDS_READ_SEC_YZ: opening global file: OBW_Phy57_76x72x24_baltic_128.bin
(PID.TID 0000.0001)  MDS_READ_SEC_YZ: opening global file: OBW_Phy58_76x72x24_baltic_128.bin
(PID.TID 0000.0001)  MDS_READ_SEC_YZ: opening global file: OBW_Phy58_76x72x24_baltic_128.bin
(PID.TID 0000.0001)  MDS_READ_SEC_YZ: opening global file: OBW_Phy59_76x72x24_baltic_128.bin
(PID.TID 0000.0001)  MDS_READ_SEC_YZ: opening global file: OBW_Phy59_76x72x24_baltic_128.bin
(PID.TID 0000.0001)  MDS_READ_SEC_YZ: opening global file: OBW_Phy60_76x72x24_baltic_128.bin
(PID.TID 0000.0001)  MDS_READ_SEC_YZ: opening global file: OBW_Phy60_76x72x24_baltic_128.bin
(PID.TID 0000.0001)  MDS_READ_SEC_YZ: opening global file: OBW_Phy61_76x72x24_baltic_128.bin
(PID.TID 0000.0001)  MDS_READ_SEC_YZ: opening global file: OBW_Phy61_76x72x24_baltic_128.bin
(PID.TID 0000.0001)  MDS_READ_SEC_YZ: opening global file: OBW_Phy62_76x72x24_baltic_128.bin
(PID.TID 0000.0001)  MDS_READ_SEC_YZ: opening global file: OBW_Phy62_76x72x24_baltic_128.bin
(PID.TID 0000.0001)  MDS_READ_SEC_YZ: opening global file: OBW_Phy63_76x72x24_baltic_128.bin
(PID.TID 0000.0001)  MDS_READ_SEC_YZ: opening global file: OBW_Phy63_76x72x24_baltic_128.bin
(PID.TID 0000.0001)  MDS_READ_SEC_YZ: opening global file: OBW_Phy64_76x72x24_baltic_128.bin
(PID.TID 0000.0001)  MDS_READ_SEC_YZ: opening global file: OBW_Phy64_76x72x24_baltic_128.bin
(PID.TID 0000.0001)  MDS_READ_SEC_YZ: opening global file: OBW_Phy65_76x72x24_baltic_128.bin
(PID.TID 0000.0001)  MDS_READ_SEC_YZ: opening global file: OBW_Phy65_76x72x24_baltic_128.bin
(PID.TID 0000.0001)  MDS_READ_SEC_YZ: opening global file: OBW_Phy66_76x72x24_baltic_128.bin
(PID.TID 0000.0001)  MDS_READ_SEC_YZ: opening global file: OBW_Phy66_76x72x24_baltic_128.bin
(PID.TID 0000.0001)  MDS_READ_SEC_YZ: opening global file: OBW_Phy67_76x72x24_baltic_128.bin
(PID.TID 0000.0001)  MDS_READ_SEC_YZ: opening global file: OBW_Phy67_76x72x24_baltic_128.bin
(PID.TID 0000.0001)  MDS_READ_SEC_YZ: opening global file: OBW_Phy68_76x72x24_baltic_128.bin
(PID.TID 0000.0001)  MDS_READ_SEC_YZ: opening global file: OBW_Phy68_76x72x24_baltic_128.bin
(PID.TID 0000.0001)  MDS_READ_SEC_YZ: opening global file: OBW_Phy69_76x72x24_baltic_128.bin
(PID.TID 0000.0001)  MDS_READ_SEC_YZ: opening global file: OBW_Phy69_76x72x24_baltic_128.bin
(PID.TID 0000.0001)  MDS_READ_SEC_YZ: opening global file: OBW_Phy70_76x72x24_baltic_128.bin
(PID.TID 0000.0001)  MDS_READ_SEC_YZ: opening global file: OBW_Phy70_76x72x24_baltic_128.bin
(PID.TID 0000.0001)  MDS_READ_SEC_YZ: opening global file: OBW_Phy71_76x72x24_baltic_128.bin
(PID.TID 0000.0001)  MDS_READ_SEC_YZ: opening global file: OBW_Phy71_76x72x24_baltic_128.bin
(PID.TID 0000.0001)  MDS_READ_SEC_YZ: opening global file: OBW_Phy72_76x72x24_baltic_128.bin
(PID.TID 0000.0001)  MDS_READ_SEC_YZ: opening global file: OBW_Phy72_76x72x24_baltic_128.bin
(PID.TID 0000.0001)  MDS_READ_SEC_YZ: opening global file: OBW_Phy73_76x72x24_baltic_128.bin
(PID.TID 0000.0001)  MDS_READ_SEC_YZ: opening global file: OBW_Phy73_76x72x24_baltic_128.bin
(PID.TID 0000.0001)  MDS_READ_SEC_YZ: opening global file: OBW_Phy74_76x72x24_baltic_128.bin
(PID.TID 0000.0001)  MDS_READ_SEC_YZ: opening global file: OBW_Phy74_76x72x24_baltic_128.bin
(PID.TID 0000.0001)  MDS_READ_SEC_YZ: opening global file: OBW_Phy75_76x72x24_baltic_128.bin
(PID.TID 0000.0001)  MDS_READ_SEC_YZ: opening global file: OBW_Phy75_76x72x24_baltic_128.bin
(PID.TID 0000.0001)  MDS_READ_SEC_YZ: opening global file: OBW_Phy76_76x72x24_baltic_128.bin
(PID.TID 0000.0001)  MDS_READ_SEC_YZ: opening global file: OBW_Phy76_76x72x24_baltic_128.bin
(PID.TID 0000.0001)  MDS_READ_SEC_YZ: opening global file: OBW_Phy77_76x72x24_baltic_128.bin
(PID.TID 0000.0001)  MDS_READ_SEC_YZ: opening global file: OBW_Phy77_76x72x24_baltic_128.bin
(PID.TID 0000.0001)  MDS_READ_SEC_YZ: opening global file: OBW_Phy78_76x72x24_baltic_128.bin
(PID.TID 0000.0001)  MDS_READ_SEC_YZ: opening global file: OBW_Phy78_76x72x24_baltic_128.bin
(PID.TID 0000.0001)  MDS_READ_SEC_YZ: opening global file: OBW_ZOO1P_76x72x24_baltic_128.bin
(PID.TID 0000.0001)  MDS_READ_SEC_YZ: opening global file: OBW_ZOO1P_76x72x24_baltic_128.bin
(PID.TID 0000.0001)  MDS_READ_SEC_YZ: opening global file: OBW_ZOO2P_76x72x24_baltic_128.bin
(PID.TID 0000.0001)  MDS_READ_SEC_YZ: opening global file: OBW_ZOO2P_76x72x24_baltic_128.bin
(PID.TID 0000.0001) // =======================================================
(PID.TID 0000.0001) // Model current state
(PID.TID 0000.0001) // =======================================================
(PID.TID 0000.0001) 
(PID.TID 0000.0001) // =======================================================
(PID.TID 0000.0001) // Begin MONITOR dynamic field statistics
(PID.TID 0000.0001) // =======================================================
(PID.TID 0000.0001) %MON time_tsnumber                =                188388
(PID.TID 0000.0001) %MON time_secondsf                =   2.2606560000000000E+08
(PID.TID 0000.0001) %MON dynstat_eta_max              =   6.7857206100958711E-01
(PID.TID 0000.0001) %MON dynstat_eta_min              =   2.4834525795928930E-02
(PID.TID 0000.0001) %MON dynstat_eta_mean             =   3.7231760032401895E-01
(PID.TID 0000.0001) %MON dynstat_eta_sd               =   1.5436287975570434E-01
(PID.TID 0000.0001) %MON dynstat_eta_del2             =   3.3947822651081628E-04
(PID.TID 0000.0001) %MON dynstat_uvel_max             =   4.1043654315727213E-01
(PID.TID 0000.0001) %MON dynstat_uvel_min             =  -3.3404372355545675E-01
(PID.TID 0000.0001) %MON dynstat_uvel_mean            =   7.2247190886371654E-03
(PID.TID 0000.0001) %MON dynstat_uvel_sd              =   6.1628348035587581E-02
(PID.TID 0000.0001) %MON dynstat_uvel_del2            =   9.6493604067269113E-04
(PID.TID 0000.0001) %MON dynstat_vvel_max             =   2.8285402026493334E-01
(PID.TID 0000.0001) %MON dynstat_vvel_min             =  -4.5228332030970847E-01
(PID.TID 0000.0001) %MON dynstat_vvel_mean            =   1.9335722007697903E-03
(PID.TID 0000.0001) %MON dynstat_vvel_sd              =   6.4592845574375501E-02
(PID.TID 0000.0001) %MON dynstat_vvel_del2            =   1.1515551720993010E-03
(PID.TID 0000.0001) %MON dynstat_wvel_max             =   4.9575213564627592E-04
(PID.TID 0000.0001) %MON dynstat_wvel_min             =  -5.0890006120395213E-04
(PID.TID 0000.0001) %MON dynstat_wvel_mean            =  -2.6308567236582174E-06
(PID.TID 0000.0001) %MON dynstat_wvel_sd              =   7.5801737004417552E-05
(PID.TID 0000.0001) %MON dynstat_wvel_del2            =   2.0446148495701136E-06
(PID.TID 0000.0001) %MON dynstat_theta_max            =   7.9698650573135801E+00
(PID.TID 0000.0001) %MON dynstat_theta_min            =  -1.6138727636084647E+00
(PID.TID 0000.0001) %MON dynstat_theta_mean           =   3.7798105201790695E+00
(PID.TID 0000.0001) %MON dynstat_theta_sd             =   2.2019507085375647E+00
(PID.TID 0000.0001) %MON dynstat_theta_del2           =   6.0422941678782028E-03
(PID.TID 0000.0001) %MON dynstat_salt_max             =   3.4927700428884421E+01
(PID.TID 0000.0001) %MON dynstat_salt_min             =   5.6521891769461945E+00
(PID.TID 0000.0001) %MON dynstat_salt_mean            =   1.5353356064885025E+01
(PID.TID 0000.0001) %MON dynstat_salt_sd              =   1.1951795815058970E+01
(PID.TID 0000.0001) %MON dynstat_salt_del2            =   3.5921468721428207E-03
(PID.TID 0000.0001) %MON forcing_qnet_max             =   0.0000000000000000E+00
(PID.TID 0000.0001) %MON forcing_qnet_min             =   0.0000000000000000E+00
(PID.TID 0000.0001) %MON forcing_qnet_mean            =   0.0000000000000000E+00
(PID.TID 0000.0001) %MON forcing_qnet_sd              =   0.0000000000000000E+00
(PID.TID 0000.0001) %MON forcing_qnet_del2            =   0.0000000000000000E+00
(PID.TID 0000.0001) %MON forcing_qsw_max              =   0.0000000000000000E+00
(PID.TID 0000.0001) %MON forcing_qsw_min              =   0.0000000000000000E+00
(PID.TID 0000.0001) %MON forcing_qsw_mean             =   0.0000000000000000E+00
(PID.TID 0000.0001) %MON forcing_qsw_sd               =   0.0000000000000000E+00
(PID.TID 0000.0001) %MON forcing_qsw_del2             =   0.0000000000000000E+00
(PID.TID 0000.0001) %MON forcing_empmr_max            =   0.0000000000000000E+00
(PID.TID 0000.0001) %MON forcing_empmr_min            =   0.0000000000000000E+00
(PID.TID 0000.0001) %MON forcing_empmr_mean           =   0.0000000000000000E+00
(PID.TID 0000.0001) %MON forcing_empmr_sd             =   0.0000000000000000E+00
(PID.TID 0000.0001) %MON forcing_empmr_del2           =   0.0000000000000000E+00
(PID.TID 0000.0001) %MON forcing_fu_max               =   0.0000000000000000E+00
(PID.TID 0000.0001) %MON forcing_fu_min               =   0.0000000000000000E+00
(PID.TID 0000.0001) %MON forcing_fu_mean              =   0.0000000000000000E+00
(PID.TID 0000.0001) %MON forcing_fu_sd                =   0.0000000000000000E+00
(PID.TID 0000.0001) %MON forcing_fu_del2              =   0.0000000000000000E+00
(PID.TID 0000.0001) %MON forcing_fv_max               =   0.0000000000000000E+00
(PID.TID 0000.0001) %MON forcing_fv_min               =   0.0000000000000000E+00
(PID.TID 0000.0001) %MON forcing_fv_mean              =   0.0000000000000000E+00
(PID.TID 0000.0001) %MON forcing_fv_sd                =   0.0000000000000000E+00
(PID.TID 0000.0001) %MON forcing_fv_del2              =   0.0000000000000000E+00
(PID.TID 0000.0001) %MON advcfl_uvel_max              =   2.3317424706639465E-02
(PID.TID 0000.0001) %MON advcfl_vvel_max              =   3.3222803653596061E-02
(PID.TID 0000.0001) %MON advcfl_wvel_max              =   5.9490256277553118E-02
(PID.TID 0000.0001) %MON advcfl_W_hf_max              =   5.9490256277553111E-02
(PID.TID 0000.0001) %MON pe_b_mean                    =   1.3744958230235175E-02
(PID.TID 0000.0001) %MON ke_max                       =   1.1199894577682115E-01
(PID.TID 0000.0001) %MON ke_mean                      =   3.2427959349813954E-03
(PID.TID 0000.0001) %MON ke_vol                       =   2.7634533915293965E+13
(PID.TID 0000.0001) %MON vort_r_min                   =  -3.7637061990678276E-05
(PID.TID 0000.0001) %MON vort_r_max                   =   3.2699331518938406E-05
(PID.TID 0000.0001) %MON vort_a_mean                  =   1.2397138973741019E-04
(PID.TID 0000.0001) %MON vort_a_sd                    =   6.2966918177204300E-06
(PID.TID 0000.0001) %MON vort_p_mean                  =   1.7325062561131650E-04
(PID.TID 0000.0001) %MON vort_p_sd                    =   1.0960208317016335E-04
(PID.TID 0000.0001) %MON surfExpan_theta_mean         =  -9.0466029399821314E-07
(PID.TID 0000.0001) %MON surfExpan_salt_mean          =   1.2050928594725965E-06
(PID.TID 0000.0001) // =======================================================
(PID.TID 0000.0001) // End MONITOR dynamic field statistics
(PID.TID 0000.0001) // =======================================================
(PID.TID 0000.0001) // =======================================================
(PID.TID 0000.0001) // Begin OBCS MONITOR field statistics
(PID.TID 0000.0001) // =======================================================
(PID.TID 0000.0001) %MON obc_W_uVel_max               =   7.0339930350663230E-02
(PID.TID 0000.0001) %MON obc_W_uVel_min               =  -1.2534759400534581E-02
(PID.TID 0000.0001) %MON obc_W_uVel_mean              =   2.2514378965596212E-02
(PID.TID 0000.0001) %MON obc_W_uVel_sd                =   2.5890103192371092E-02
(PID.TID 0000.0001) %MON obc_W_uVel_Int               =   4.7351175925312804E+04
(PID.TID 0000.0001) %MON obc_N_vVel_max               =   1.8577546101124559E-01
(PID.TID 0000.0001) %MON obc_N_vVel_min               =  -2.5391576023863965E-01
(PID.TID 0000.0001) %MON obc_N_vVel_mean              =   1.5193571121082125E-03
(PID.TID 0000.0001) %MON obc_N_vVel_sd                =   8.5462048288720741E-02
(PID.TID 0000.0001) %MON obc_N_vVel_Int               =   4.7666041382966701E+04
(PID.TID 0000.0001) // =======================================================
(PID.TID 0000.0001) // End OBCS MONITOR field statistics
(PID.TID 0000.0001) // =======================================================
(PID.TID 0000.0001) // =======================================================
(PID.TID 0000.0001) // Begin MONITOR SEAICE statistics
(PID.TID 0000.0001) // =======================================================
(PID.TID 0000.0001) %MON seaice_tsnumber              =                188388
(PID.TID 0000.0001) %MON seaice_time_sec              =   2.2606560000000000E+08
(PID.TID 0000.0001) %MON seaice_uice_max              =   4.0000000000000002E-01
(PID.TID 0000.0001) %MON seaice_uice_min              =  -2.0818735801076482E-01
(PID.TID 0000.0001) %MON seaice_uice_mean             =   1.7135534274809930E-01
(PID.TID 0000.0001) %MON seaice_uice_sd               =   1.2732607744757968E-01
(PID.TID 0000.0001) %MON seaice_uice_del2             =   2.4397363148549664E-03
(PID.TID 0000.0001) %MON seaice_vice_max              =   4.0000000000000002E-01
(PID.TID 0000.0001) %MON seaice_vice_min              =  -4.0000000000000002E-01
(PID.TID 0000.0001) %MON seaice_vice_mean             =  -8.2298987070637014E-02
(PID.TID 0000.0001) %MON seaice_vice_sd               =   1.4565675515411491E-01
(PID.TID 0000.0001) %MON seaice_vice_del2             =   2.7744345086973122E-03
(PID.TID 0000.0001) %MON seaice_area_max              =   1.0000000000000000E+00
(PID.TID 0000.0001) %MON seaice_area_min              =   0.0000000000000000E+00
(PID.TID 0000.0001) %MON seaice_area_mean             =   2.2620370416445418E-01
(PID.TID 0000.0001) %MON seaice_area_sd               =   3.8531906057259507E-01
(PID.TID 0000.0001) %MON seaice_area_del2             =   4.5224430665296916E-03
(PID.TID 0000.0001) %MON seaice_heff_max              =   1.0115990757456528E+00
(PID.TID 0000.0001) %MON seaice_heff_min              =   0.0000000000000000E+00
(PID.TID 0000.0001) %MON seaice_heff_mean             =   1.2507534371603943E-01
(PID.TID 0000.0001) %MON seaice_heff_sd               =   2.4312450293484875E-01
(PID.TID 0000.0001) %MON seaice_heff_del2             =   2.2409775961535310E-03
(PID.TID 0000.0001) %MON seaice_hsnow_max             =   2.7588954944145094E-01
(PID.TID 0000.0001) %MON seaice_hsnow_min             =   0.0000000000000000E+00
(PID.TID 0000.0001) %MON seaice_hsnow_mean            =   3.0754289927356501E-02
(PID.TID 0000.0001) %MON seaice_hsnow_sd              =   6.4155555132779193E-02
(PID.TID 0000.0001) %MON seaice_hsnow_del2            =   3.7889157137013492E-04
(PID.TID 0000.0001) // =======================================================
(PID.TID 0000.0001) // End MONITOR SEAICE statistics
(PID.TID 0000.0001) // =======================================================
(PID.TID 0000.0001) // =======================================================
(PID.TID 0000.0001) // Begin MONITOR ptracer field statistics
(PID.TID 0000.0001) // =======================================================
(PID.TID 0000.0001) %MON trcstat_ptracer01_max        =   0.0000000000000000E+00
(PID.TID 0000.0001) %MON trcstat_ptracer01_min        =   0.0000000000000000E+00
(PID.TID 0000.0001) %MON trcstat_ptracer01_mean       =   0.0000000000000000E+00
(PID.TID 0000.0001) %MON trcstat_ptracer01_sd         =   0.0000000000000000E+00
(PID.TID 0000.0001) %MON trcstat_ptracer01_del2       =   0.0000000000000000E+00
(PID.TID 0000.0001) %MON trcstat_ptracer02_max        =   2.4088283189212198E-01
(PID.TID 0000.0001) %MON trcstat_ptracer02_min        =   2.2474205615250472E-07
(PID.TID 0000.0001) %MON trcstat_ptracer02_mean       =   1.3306268867075541E-02
(PID.TID 0000.0001) %MON trcstat_ptracer02_sd         =   1.7399648106629178E-02
(PID.TID 0000.0001) %MON trcstat_ptracer02_del2       =   8.4392226997531650E-04
(PID.TID 0000.0001) %MON trcstat_ptracer03_max        =   2.3343713360813010E+00
(PID.TID 0000.0001) %MON trcstat_ptracer03_min        =   3.0233044741168771E-05
(PID.TID 0000.0001) %MON trcstat_ptracer03_mean       =   1.5995994386708359E-01
(PID.TID 0000.0001) %MON trcstat_ptracer03_sd         =   1.8965697331950374E-01
(PID.TID 0000.0001) %MON trcstat_ptracer03_del2       =   7.1050919677114550E-04
(PID.TID 0000.0001) %MON trcstat_ptracer04_max        =   4.4161324524730645E+01
(PID.TID 0000.0001) %MON trcstat_ptracer04_min        =   1.4930485383354404E-02
(PID.TID 0000.0001) %MON trcstat_ptracer04_mean       =   4.5816946354514156E+00
(PID.TID 0000.0001) %MON trcstat_ptracer04_sd         =   6.6985150791487031E+00
(PID.TID 0000.0001) %MON trcstat_ptracer04_del2       =   1.2507498180654103E-02
(PID.TID 0000.0001) %MON trcstat_ptracer05_max        =   4.3206749483820941E+00
(PID.TID 0000.0001) %MON trcstat_ptracer05_min        =   3.7997221289855138E-02
(PID.TID 0000.0001) %MON trcstat_ptracer05_mean       =   5.9103671591413176E-01
(PID.TID 0000.0001) %MON trcstat_ptracer05_sd         =   5.1755891503144069E-01
(PID.TID 0000.0001) %MON trcstat_ptracer05_del2       =   8.6322666859241963E-04
(PID.TID 0000.0001) %MON trcstat_ptracer06_max        =   1.5669854101843586E+02
(PID.TID 0000.0001) %MON trcstat_ptracer06_min        =   6.2666926623514640E-02
(PID.TID 0000.0001) %MON trcstat_ptracer06_mean       =   1.4711712348283463E+01
(PID.TID 0000.0001) %MON trcstat_ptracer06_sd         =   1.7084930997851647E+01
(PID.TID 0000.0001) %MON trcstat_ptracer06_del2       =   2.7884970893014668E-02
(PID.TID 0000.0001) %MON trcstat_ptracer07_max        =   1.3876605029831785E-03
(PID.TID 0000.0001) %MON trcstat_ptracer07_min        =   5.8864303059656968E-04
(PID.TID 0000.0001) %MON trcstat_ptracer07_mean       =   1.0854101856157610E-03
(PID.TID 0000.0001) %MON trcstat_ptracer07_sd         =   1.4544221423653031E-04
(PID.TID 0000.0001) %MON trcstat_ptracer07_del2       =   4.5510068884115327E-07
(PID.TID 0000.0001) %MON trcstat_ptracer08_max        =   3.3988026277105284E+01
(PID.TID 0000.0001) %MON trcstat_ptracer08_min        =   1.0008355486136631E-05
(PID.TID 0000.0001) %MON trcstat_ptracer08_mean       =   7.0068118323063038E+00
(PID.TID 0000.0001) %MON trcstat_ptracer08_sd         =   6.8277362995400477E+00
(PID.TID 0000.0001) %MON trcstat_ptracer08_del2       =   1.7653856611914084E-02
(PID.TID 0000.0001) %MON trcstat_ptracer09_max        =   4.5317368369473714E+00
(PID.TID 0000.0001) %MON trcstat_ptracer09_min        =   1.3344473981515508E-06
(PID.TID 0000.0001) %MON trcstat_ptracer09_mean       =   9.3424157764083882E-01
(PID.TID 0000.0001) %MON trcstat_ptracer09_sd         =   9.1036483993867323E-01
(PID.TID 0000.0001) %MON trcstat_ptracer09_del2       =   2.3538475482552108E-03
(PID.TID 0000.0001) %MON trcstat_ptracer10_max        =   2.8323355230921071E-01
(PID.TID 0000.0001) %MON trcstat_ptracer10_min        =   8.3402962384471924E-08
(PID.TID 0000.0001) %MON trcstat_ptracer10_mean       =   5.8390098602552426E-02
(PID.TID 0000.0001) %MON trcstat_ptracer10_sd         =   5.6897802496167077E-02
(PID.TID 0000.0001) %MON trcstat_ptracer10_del2       =   1.4711547176595068E-04
(PID.TID 0000.0001) %MON trcstat_ptracer11_max        =   2.8323355230920979E-04
(PID.TID 0000.0001) %MON trcstat_ptracer11_min        =   8.3402962384474448E-11
(PID.TID 0000.0001) %MON trcstat_ptracer11_mean       =   5.8390098590765158E-05
(PID.TID 0000.0001) %MON trcstat_ptracer11_sd         =   5.6897802550780119E-05
(PID.TID 0000.0001) %MON trcstat_ptracer11_del2       =   1.4711547217958639E-07
(PID.TID 0000.0001) %MON trcstat_ptracer12_max        =   1.2145173872087076E+02
(PID.TID 0000.0001) %MON trcstat_ptracer12_min        =   4.0474779506730960E-07
(PID.TID 0000.0001) %MON trcstat_ptracer12_mean       =   2.4528523807464304E+00
(PID.TID 0000.0001) %MON trcstat_ptracer12_sd         =   5.8847527692661981E+00
(PID.TID 0000.0001) %MON trcstat_ptracer12_del2       =   3.5676707414754413E-02
(PID.TID 0000.0001) %MON trcstat_ptracer13_max        =   1.6193565162782768E+01
(PID.TID 0000.0001) %MON trcstat_ptracer13_min        =   5.3966372675641278E-08
(PID.TID 0000.0001) %MON trcstat_ptracer13_mean       =   3.2704698409952421E-01
(PID.TID 0000.0001) %MON trcstat_ptracer13_sd         =   7.8463370256882625E-01
(PID.TID 0000.0001) %MON trcstat_ptracer13_del2       =   4.7568943219672517E-03
(PID.TID 0000.0001) %MON trcstat_ptracer14_max        =   1.0120978226739230E+00
(PID.TID 0000.0001) %MON trcstat_ptracer14_min        =   3.3728982922275799E-09
(PID.TID 0000.0001) %MON trcstat_ptracer14_mean       =   2.0440436506220263E-02
(PID.TID 0000.0001) %MON trcstat_ptracer14_sd         =   4.9039606410551641E-02
(PID.TID 0000.0001) %MON trcstat_ptracer14_del2       =   2.9730589512295323E-04
(PID.TID 0000.0001) %MON trcstat_ptracer15_max        =   3.0580937614223961E+02
(PID.TID 0000.0001) %MON trcstat_ptracer15_min        =   9.2263135852666283E-08
(PID.TID 0000.0001) %MON trcstat_ptracer15_mean       =   2.2926781173420396E+00
(PID.TID 0000.0001) %MON trcstat_ptracer15_sd         =   1.2523619914418093E+01
(PID.TID 0000.0001) %MON trcstat_ptracer15_del2       =   5.3794026014664792E-02
(PID.TID 0000.0001) %MON trcstat_ptracer16_max        =   1.0120978226739236E-03
(PID.TID 0000.0001) %MON trcstat_ptracer16_min        =   3.3728982922275780E-12
(PID.TID 0000.0001) %MON trcstat_ptracer16_mean       =   2.0440436510832252E-05
(PID.TID 0000.0001) %MON trcstat_ptracer16_sd         =   4.9039606407544719E-05
(PID.TID 0000.0001) %MON trcstat_ptracer16_del2       =   2.9730589535056332E-07
(PID.TID 0000.0001) %MON trcstat_ptracer17_max        =   0.0000000000000000E+00
(PID.TID 0000.0001) %MON trcstat_ptracer17_min        =   0.0000000000000000E+00
(PID.TID 0000.0001) %MON trcstat_ptracer17_mean       =   0.0000000000000000E+00
(PID.TID 0000.0001) %MON trcstat_ptracer17_sd         =   0.0000000000000000E+00
(PID.TID 0000.0001) %MON trcstat_ptracer17_del2       =   0.0000000000000000E+00
(PID.TID 0000.0001) %MON trcstat_ptracer18_max        =   6.7160809275511532E-03
(PID.TID 0000.0001) %MON trcstat_ptracer18_min        =  -2.5282282675184914E-17
(PID.TID 0000.0001) %MON trcstat_ptracer18_mean       =   1.4978182993079045E-05
(PID.TID 0000.0001) %MON trcstat_ptracer18_sd         =   2.1608478386643239E-04
(PID.TID 0000.0001) %MON trcstat_ptracer18_del2       =   5.4234963262380335E-06
(PID.TID 0000.0001) %MON trcstat_ptracer19_max        =   6.3412597152118666E-02
(PID.TID 0000.0001) %MON trcstat_ptracer19_min        =  -2.7122201165532364E-22
(PID.TID 0000.0001) %MON trcstat_ptracer19_mean       =   8.8554033809905785E-04
(PID.TID 0000.0001) %MON trcstat_ptracer19_sd         =   4.8230735621064271E-03
(PID.TID 0000.0001) %MON trcstat_ptracer19_del2       =   2.2948461094219922E-05
(PID.TID 0000.0001) %MON trcstat_ptracer20_max        =   6.7160816657479425E-03
(PID.TID 0000.0001) %MON trcstat_ptracer20_min        =   6.8477824509234561E-49
(PID.TID 0000.0001) %MON trcstat_ptracer20_mean       =   1.4993960598903473E-05
(PID.TID 0000.0001) %MON trcstat_ptracer20_sd         =   2.1608369210479958E-04
(PID.TID 0000.0001) %MON trcstat_ptracer20_del2       =   5.4234975367925554E-06
(PID.TID 0000.0001) %MON trcstat_ptracer21_max        =   1.7065828309101867E-02
(PID.TID 0000.0001) %MON trcstat_ptracer21_min        =   9.6751936385919035E-32
(PID.TID 0000.0001) %MON trcstat_ptracer21_mean       =   3.2255229412249717E-04
(PID.TID 0000.0001) %MON trcstat_ptracer21_sd         =   1.2938275261848186E-03
(PID.TID 0000.0001) %MON trcstat_ptracer21_del2       =   1.2580685187547318E-05
(PID.TID 0000.0001) %MON trcstat_ptracer22_max        =   6.2875543792765450E-03
(PID.TID 0000.0001) %MON trcstat_ptracer22_min        =  -3.2258539962785970E-15
(PID.TID 0000.0001) %MON trcstat_ptracer22_mean       =   1.2723714756593708E-05
(PID.TID 0000.0001) %MON trcstat_ptracer22_sd         =   1.9879652239618891E-04
(PID.TID 0000.0001) %MON trcstat_ptracer22_del2       =   5.5465273533863264E-06
(PID.TID 0000.0001) %MON trcstat_ptracer23_max        =   1.1655290670311342E+00
(PID.TID 0000.0001) %MON trcstat_ptracer23_min        =   1.5491371719865101E-17
(PID.TID 0000.0001) %MON trcstat_ptracer23_mean       =   2.9621691744934269E-02
(PID.TID 0000.0001) %MON trcstat_ptracer23_sd         =   8.1493414059534350E-02
(PID.TID 0000.0001) %MON trcstat_ptracer23_del2       =   6.4200896604985156E-04
(PID.TID 0000.0001) %MON trcstat_ptracer24_max        =   1.1113689816363639E+01
(PID.TID 0000.0001) %MON trcstat_ptracer24_min        =   8.0446875794931531E-22
(PID.TID 0000.0001) %MON trcstat_ptracer24_mean       =   1.9465741644132725E-01
(PID.TID 0000.0001) %MON trcstat_ptracer24_sd         =   7.0785731378298167E-01
(PID.TID 0000.0001) %MON trcstat_ptracer24_del2       =   5.5918233866101858E-03
(PID.TID 0000.0001) %MON trcstat_ptracer25_max        =   1.2706961191769370E-01
(PID.TID 0000.0001) %MON trcstat_ptracer25_min        =   1.1999999999984851E-48
(PID.TID 0000.0001) %MON trcstat_ptracer25_mean       =   3.5974285793982316E-04
(PID.TID 0000.0001) %MON trcstat_ptracer25_sd         =   2.9088452635794362E-03
(PID.TID 0000.0001) %MON trcstat_ptracer25_del2       =   2.0527733810603090E-05
(PID.TID 0000.0001) %MON trcstat_ptracer26_max        =   1.5692748325571764E+00
(PID.TID 0000.0001) %MON trcstat_ptracer26_min        =   1.4644528178958096E-27
(PID.TID 0000.0001) %MON trcstat_ptracer26_mean       =   1.6750711579971024E-02
(PID.TID 0000.0001) %MON trcstat_ptracer26_sd         =   8.6928193872717316E-02
(PID.TID 0000.0001) %MON trcstat_ptracer26_del2       =   8.7892186118214964E-04
(PID.TID 0000.0001) %MON trcstat_ptracer27_max        =   6.4885703170104335E-03
(PID.TID 0000.0001) %MON trcstat_ptracer27_min        =   1.5125227373541844E-12
(PID.TID 0000.0001) %MON trcstat_ptracer27_mean       =   1.4048560587107074E-05
(PID.TID 0000.0001) %MON trcstat_ptracer27_sd         =   2.1012996932359660E-04
(PID.TID 0000.0001) %MON trcstat_ptracer27_del2       =   5.4449869265398562E-06
(PID.TID 0000.0001) %MON trcstat_ptracer28_max        =   6.4885558151430434E-03
(PID.TID 0000.0001) %MON trcstat_ptracer28_min        =  -6.5388706433223866E-17
(PID.TID 0000.0001) %MON trcstat_ptracer28_mean       =   1.3888117610578611E-05
(PID.TID 0000.0001) %MON trcstat_ptracer28_sd         =   2.1013862043382033E-04
(PID.TID 0000.0001) %MON trcstat_ptracer28_del2       =   5.4449905361658956E-06
(PID.TID 0000.0001) %MON trcstat_ptracer29_max        =   6.2875543793830127E-03
(PID.TID 0000.0001) %MON trcstat_ptracer29_min        =  -2.4747053506227998E-19
(PID.TID 0000.0001) %MON trcstat_ptracer29_mean       =   1.2723714777145167E-05
(PID.TID 0000.0001) %MON trcstat_ptracer29_sd         =   1.9879652239870022E-04
(PID.TID 0000.0001) %MON trcstat_ptracer29_del2       =   5.5465273533504783E-06
(PID.TID 0000.0001) %MON trcstat_ptracer30_max        =   6.7160809275052854E-03
(PID.TID 0000.0001) %MON trcstat_ptracer30_min        =   6.8248312013920386E-49
(PID.TID 0000.0001) %MON trcstat_ptracer30_mean       =   1.4978295329943841E-05
(PID.TID 0000.0001) %MON trcstat_ptracer30_sd         =   2.1608477585438504E-04
(PID.TID 0000.0001) %MON trcstat_ptracer30_del2       =   5.4234963311503028E-06
(PID.TID 0000.0001) %MON trcstat_ptracer31_max        =   6.2875543793589461E-03
(PID.TID 0000.0001) %MON trcstat_ptracer31_min        =  -3.1196430320518621E-15
(PID.TID 0000.0001) %MON trcstat_ptracer31_mean       =   1.2723714756916653E-05
(PID.TID 0000.0001) %MON trcstat_ptracer31_sd         =   1.9879652239884597E-04
(PID.TID 0000.0001) %MON trcstat_ptracer31_del2       =   5.5465273533665694E-06
(PID.TID 0000.0001) %MON trcstat_ptracer32_max        =   6.7160809260696066E-03
(PID.TID 0000.0001) %MON trcstat_ptracer32_min        =  -7.0632941367040027E-17
(PID.TID 0000.0001) %MON trcstat_ptracer32_mean       =   1.4978126006242053E-05
(PID.TID 0000.0001) %MON trcstat_ptracer32_sd         =   2.1608478789347793E-04
(PID.TID 0000.0001) %MON trcstat_ptracer32_del2       =   5.4234963197457097E-06
(PID.TID 0000.0001) %MON trcstat_ptracer33_max        =   6.7160821880751335E-03
(PID.TID 0000.0001) %MON trcstat_ptracer33_min        =  -4.6583817337326555E-34
(PID.TID 0000.0001) %MON trcstat_ptracer33_mean       =   1.5316474111528466E-05
(PID.TID 0000.0001) %MON trcstat_ptracer33_sd         =   2.1606264666744796E-04
(PID.TID 0000.0001) %MON trcstat_ptracer33_del2       =   5.4234989361546083E-06
(PID.TID 0000.0001) %MON trcstat_ptracer34_max        =   8.5369619797228263E-03
(PID.TID 0000.0001) %MON trcstat_ptracer34_min        =   1.1859717736200157E-48
(PID.TID 0000.0001) %MON trcstat_ptracer34_mean       =   2.1104639979183739E-05
(PID.TID 0000.0001) %MON trcstat_ptracer34_sd         =   2.7177142274334312E-04
(PID.TID 0000.0001) %MON trcstat_ptracer34_del2       =   5.2131981215842467E-06
(PID.TID 0000.0001) %MON trcstat_ptracer35_max        =   3.4087417106460621E-01
(PID.TID 0000.0001) %MON trcstat_ptracer35_min        =   8.9061264105297215E-31
(PID.TID 0000.0001) %MON trcstat_ptracer35_mean       =   2.2563650138470743E-03
(PID.TID 0000.0001) %MON trcstat_ptracer35_sd         =   1.6352020503933667E-02
(PID.TID 0000.0001) %MON trcstat_ptracer35_del2       =   1.2275799572641151E-04
(PID.TID 0000.0001) %MON trcstat_ptracer36_max        =   6.7160809260717507E-03
(PID.TID 0000.0001) %MON trcstat_ptracer36_min        =  -8.5063446367294955E-17
(PID.TID 0000.0001) %MON trcstat_ptracer36_mean       =   1.4978125803491913E-05
(PID.TID 0000.0001) %MON trcstat_ptracer36_sd         =   2.1608478790846394E-04
(PID.TID 0000.0001) %MON trcstat_ptracer36_del2       =   5.4234963197223503E-06
(PID.TID 0000.0001) %MON trcstat_ptracer37_max        =   6.7160809261973698E-03
(PID.TID 0000.0001) %MON trcstat_ptracer37_min        =  -5.8380408965737601E-16
(PID.TID 0000.0001) %MON trcstat_ptracer37_mean       =   1.4978125697659719E-05
(PID.TID 0000.0001) %MON trcstat_ptracer37_sd         =   2.1608478792830698E-04
(PID.TID 0000.0001) %MON trcstat_ptracer37_del2       =   5.4234963196560860E-06
(PID.TID 0000.0001) %MON trcstat_ptracer38_max        =   6.2875564204035858E-03
(PID.TID 0000.0001) %MON trcstat_ptracer38_min        =   8.9433908143418599E-15
(PID.TID 0000.0001) %MON trcstat_ptracer38_mean       =   1.2844161199724353E-05
(PID.TID 0000.0001) %MON trcstat_ptracer38_sd         =   1.9879092579166998E-04
(PID.TID 0000.0001) %MON trcstat_ptracer38_del2       =   5.5465275288092850E-06
(PID.TID 0000.0001) %MON trcstat_ptracer39_max        =   1.2483314391822189E-01
(PID.TID 0000.0001) %MON trcstat_ptracer39_min        =   6.5261383680681345E-12
(PID.TID 0000.0001) %MON trcstat_ptracer39_mean       =   2.7591750412176816E-03
(PID.TID 0000.0001) %MON trcstat_ptracer39_sd         =   9.9028521293036773E-03
(PID.TID 0000.0001) %MON trcstat_ptracer39_del2       =   7.7797772889480525E-05
(PID.TID 0000.0001) %MON trcstat_ptracer40_max        =   6.7160810063214282E-03
(PID.TID 0000.0001) %MON trcstat_ptracer40_min        =  -1.6270224190469553E-29
(PID.TID 0000.0001) %MON trcstat_ptracer40_mean       =   1.4980425513304637E-05
(PID.TID 0000.0001) %MON trcstat_ptracer40_sd         =   2.1608462936565338E-04
(PID.TID 0000.0001) %MON trcstat_ptracer40_del2       =   5.4234964129696180E-06
(PID.TID 0000.0001) %MON trcstat_ptracer41_max        =   1.2683365085271202E-02
(PID.TID 0000.0001) %MON trcstat_ptracer41_min        =   1.6924005730763635E-48
(PID.TID 0000.0001) %MON trcstat_ptracer41_mean       =   4.4477183087185950E-05
(PID.TID 0000.0001) %MON trcstat_ptracer41_sd         =   4.7252757397375772E-04
(PID.TID 0000.0001) %MON trcstat_ptracer41_del2       =   5.5356043993325133E-06
(PID.TID 0000.0001) %MON trcstat_ptracer42_max        =   6.4885558151931370E-03
(PID.TID 0000.0001) %MON trcstat_ptracer42_min        =  -7.4258941718532769E-19
(PID.TID 0000.0001) %MON trcstat_ptracer42_mean       =   1.3888117636628789E-05
(PID.TID 0000.0001) %MON trcstat_ptracer42_sd         =   2.1013862043384673E-04
(PID.TID 0000.0001) %MON trcstat_ptracer42_del2       =   5.4449905361532545E-06
(PID.TID 0000.0001) %MON trcstat_ptracer43_max        =   6.7160809260871437E-03
(PID.TID 0000.0001) %MON trcstat_ptracer43_min        =  -6.2159805773628303E-17
(PID.TID 0000.0001) %MON trcstat_ptracer43_mean       =   1.4978127824921939E-05
(PID.TID 0000.0001) %MON trcstat_ptracer43_sd         =   2.1608478776499510E-04
(PID.TID 0000.0001) %MON trcstat_ptracer43_del2       =   5.4234963199586538E-06
(PID.TID 0000.0001) %MON trcstat_ptracer44_max        =   6.7160809265698661E-03
(PID.TID 0000.0001) %MON trcstat_ptracer44_min        =  -9.3090822545178685E-33
(PID.TID 0000.0001) %MON trcstat_ptracer44_mean       =   1.4978181717151129E-05
(PID.TID 0000.0001) %MON trcstat_ptracer44_sd         =   2.1608478396531323E-04
(PID.TID 0000.0001) %MON trcstat_ptracer44_del2       =   5.4234963229267996E-06
(PID.TID 0000.0001) %MON trcstat_ptracer45_max        =   6.7161513069572045E-03
(PID.TID 0000.0001) %MON trcstat_ptracer45_min        =   9.3918339976630227E-49
(PID.TID 0000.0001) %MON trcstat_ptracer45_mean       =   1.6595085099736834E-05
(PID.TID 0000.0001) %MON trcstat_ptracer45_sd         =   2.1605970279298600E-04
(PID.TID 0000.0001) %MON trcstat_ptracer45_del2       =   5.4238045621256199E-06
(PID.TID 0000.0001) %MON trcstat_ptracer46_max        =   6.7844985183364353E-03
(PID.TID 0000.0001) %MON trcstat_ptracer46_min        =   1.1527462138715576E-48
(PID.TID 0000.0001) %MON trcstat_ptracer46_mean       =   1.9736674336267234E-05
(PID.TID 0000.0001) %MON trcstat_ptracer46_sd         =   2.7119131803302071E-04
(PID.TID 0000.0001) %MON trcstat_ptracer46_del2       =   4.9224993353276066E-06
(PID.TID 0000.0001) %MON trcstat_ptracer47_max        =   6.7161038876413391E-03
(PID.TID 0000.0001) %MON trcstat_ptracer47_min        =   1.2000000922218569E-48
(PID.TID 0000.0001) %MON trcstat_ptracer47_mean       =   1.6779495549475637E-05
(PID.TID 0000.0001) %MON trcstat_ptracer47_sd         =   2.1599687247224892E-04
(PID.TID 0000.0001) %MON trcstat_ptracer47_del2       =   5.4235717356031371E-06
(PID.TID 0000.0001) %MON trcstat_ptracer48_max        =   6.8938790887177514E-03
(PID.TID 0000.0001) %MON trcstat_ptracer48_min        =   5.3979399989963796E-48
(PID.TID 0000.0001) %MON trcstat_ptracer48_mean       =   1.7479143007206347E-05
(PID.TID 0000.0001) %MON trcstat_ptracer48_sd         =   2.5542746083288413E-04
(PID.TID 0000.0001) %MON trcstat_ptracer48_del2       =   5.0236493622826089E-06
(PID.TID 0000.0001) %MON trcstat_ptracer49_max        =   6.2875543796096951E-03
(PID.TID 0000.0001) %MON trcstat_ptracer49_min        =  -3.0920396209087316E-15
(PID.TID 0000.0001) %MON trcstat_ptracer49_mean       =   1.2723714757669853E-05
(PID.TID 0000.0001) %MON trcstat_ptracer49_sd         =   1.9879652240896017E-04
(PID.TID 0000.0001) %MON trcstat_ptracer49_del2       =   5.5465273532811054E-06
(PID.TID 0000.0001) %MON trcstat_ptracer50_max        =   6.7160809262004498E-03
(PID.TID 0000.0001) %MON trcstat_ptracer50_min        =  -5.1039529408168133E-16
(PID.TID 0000.0001) %MON trcstat_ptracer50_mean       =   1.4978125697515365E-05
(PID.TID 0000.0001) %MON trcstat_ptracer50_sd         =   2.1608478792727915E-04
(PID.TID 0000.0001) %MON trcstat_ptracer50_del2       =   5.4234963196598367E-06
(PID.TID 0000.0001) %MON trcstat_ptracer51_max        =   6.2875543795840663E-03
(PID.TID 0000.0001) %MON trcstat_ptracer51_min        =  -2.5603117599066435E-21
(PID.TID 0000.0001) %MON trcstat_ptracer51_mean       =   1.2723714795665313E-05
(PID.TID 0000.0001) %MON trcstat_ptracer51_sd         =   1.9879652240610172E-04
(PID.TID 0000.0001) %MON trcstat_ptracer51_del2       =   5.5465273532825954E-06
(PID.TID 0000.0001) %MON trcstat_ptracer52_max        =   3.5176039099414100E+00
(PID.TID 0000.0001) %MON trcstat_ptracer52_min        =   5.3459319148452563E-39
(PID.TID 0000.0001) %MON trcstat_ptracer52_mean       =   3.9944171200837250E-02
(PID.TID 0000.0001) %MON trcstat_ptracer52_sd         =   2.2163542487032473E-01
(PID.TID 0000.0001) %MON trcstat_ptracer52_del2       =   1.1350427046437222E-03
(PID.TID 0000.0001) %MON trcstat_ptracer53_max        =   6.4221068001889564E-02
(PID.TID 0000.0001) %MON trcstat_ptracer53_min        =   1.9529037883883024E-42
(PID.TID 0000.0001) %MON trcstat_ptracer53_mean       =   1.1612737164747712E-04
(PID.TID 0000.0001) %MON trcstat_ptracer53_sd         =   1.1594711611132881E-03
(PID.TID 0000.0001) %MON trcstat_ptracer53_del2       =   1.0782152817854682E-05
(PID.TID 0000.0001) %MON trcstat_ptracer54_max        =   1.2729864111264210E-02
(PID.TID 0000.0001) %MON trcstat_ptracer54_min        =   1.1904741120517671E-31
(PID.TID 0000.0001) %MON trcstat_ptracer54_mean       =   2.6076055864678130E-05
(PID.TID 0000.0001) %MON trcstat_ptracer54_sd         =   3.9386707893870979E-04
(PID.TID 0000.0001) %MON trcstat_ptracer54_del2       =   5.2669303447720946E-06
(PID.TID 0000.0001) %MON trcstat_ptracer55_max        =   9.4058555483037560E-03
(PID.TID 0000.0001) %MON trcstat_ptracer55_min        =   1.1755386188436202E-48
(PID.TID 0000.0001) %MON trcstat_ptracer55_mean       =   2.4517059857142225E-05
(PID.TID 0000.0001) %MON trcstat_ptracer55_sd         =   3.0685046740780528E-04
(PID.TID 0000.0001) %MON trcstat_ptracer55_del2       =   5.0131578039419956E-06
(PID.TID 0000.0001) %MON trcstat_ptracer56_max        =   9.2475517582183558E-03
(PID.TID 0000.0001) %MON trcstat_ptracer56_min        =  -7.4390681946994750E-30
(PID.TID 0000.0001) %MON trcstat_ptracer56_mean       =   2.4818747677033498E-05
(PID.TID 0000.0001) %MON trcstat_ptracer56_sd         =   3.5305634248372750E-04
(PID.TID 0000.0001) %MON trcstat_ptracer56_del2       =   4.7654336085242220E-06
(PID.TID 0000.0001) %MON trcstat_ptracer57_max        =   8.2128333719356864E-03
(PID.TID 0000.0001) %MON trcstat_ptracer57_min        =   7.9736904284561027E-28
(PID.TID 0000.0001) %MON trcstat_ptracer57_mean       =   1.8158387150885641E-05
(PID.TID 0000.0001) %MON trcstat_ptracer57_sd         =   2.8482963896816755E-04
(PID.TID 0000.0001) %MON trcstat_ptracer57_del2       =   4.9525893704286359E-06
(PID.TID 0000.0001) %MON trcstat_ptracer58_max        =   8.2835535352910571E-03
(PID.TID 0000.0001) %MON trcstat_ptracer58_min        =   1.1913681008879521E-48
(PID.TID 0000.0001) %MON trcstat_ptracer58_mean       =   2.0381874760658945E-05
(PID.TID 0000.0001) %MON trcstat_ptracer58_sd         =   2.6328216242003401E-04
(PID.TID 0000.0001) %MON trcstat_ptracer58_del2       =   5.2658513251495532E-06
(PID.TID 0000.0001) %MON trcstat_ptracer59_max        =   8.1233807771091508E-03
(PID.TID 0000.0001) %MON trcstat_ptracer59_min        =   1.1495083044078496E-48
(PID.TID 0000.0001) %MON trcstat_ptracer59_mean       =   2.9172609352293248E-05
(PID.TID 0000.0001) %MON trcstat_ptracer59_sd         =   3.5619893551756766E-04
(PID.TID 0000.0001) %MON trcstat_ptracer59_del2       =   4.6308942958829888E-06
(PID.TID 0000.0001) %MON trcstat_ptracer60_max        =   5.5955091554313774E-02
(PID.TID 0000.0001) %MON trcstat_ptracer60_min        =  -2.1475437762903746E-22
(PID.TID 0000.0001) %MON trcstat_ptracer60_mean       =   2.1939859106384312E-04
(PID.TID 0000.0001) %MON trcstat_ptracer60_sd         =   2.0573795352376600E-03
(PID.TID 0000.0001) %MON trcstat_ptracer60_del2       =   2.7430181135231448E-05
(PID.TID 0000.0001) %MON trcstat_ptracer61_max        =   6.4885563437893264E-03
(PID.TID 0000.0001) %MON trcstat_ptracer61_min        =   4.9468006174199615E-16
(PID.TID 0000.0001) %MON trcstat_ptracer61_mean       =   1.3888990959673426E-05
(PID.TID 0000.0001) %MON trcstat_ptracer61_sd         =   2.1013860533350276E-04
(PID.TID 0000.0001) %MON trcstat_ptracer61_del2       =   5.4449902954144138E-06
(PID.TID 0000.0001) %MON trcstat_ptracer62_max        =   6.7160809260808901E-03
(PID.TID 0000.0001) %MON trcstat_ptracer62_min        =  -6.1481025941139721E-17
(PID.TID 0000.0001) %MON trcstat_ptracer62_mean       =   1.4978128784028705E-05
(PID.TID 0000.0001) %MON trcstat_ptracer62_sd         =   2.1608478769569002E-04
(PID.TID 0000.0001) %MON trcstat_ptracer62_del2       =   5.4234963200674764E-06
(PID.TID 0000.0001) %MON trcstat_ptracer63_max        =   6.2875543795564755E-03
(PID.TID 0000.0001) %MON trcstat_ptracer63_min        =  -3.1693852180723597E-15
(PID.TID 0000.0001) %MON trcstat_ptracer63_mean       =   1.2723714757639445E-05
(PID.TID 0000.0001) %MON trcstat_ptracer63_sd         =   1.9879652240755219E-04
(PID.TID 0000.0001) %MON trcstat_ptracer63_del2       =   5.5465273532966934E-06
(PID.TID 0000.0001) %MON trcstat_ptracer64_max        =   6.2875543795122245E-03
(PID.TID 0000.0001) %MON trcstat_ptracer64_min        =  -7.6703530979491897E-23
(PID.TID 0000.0001) %MON trcstat_ptracer64_mean       =   1.2723714991387636E-05
(PID.TID 0000.0001) %MON trcstat_ptracer64_sd         =   1.9879652239006710E-04
(PID.TID 0000.0001) %MON trcstat_ptracer64_del2       =   5.5465273533070136E-06
(PID.TID 0000.0001) %MON trcstat_ptracer65_max        =   6.7160809259472739E-03
(PID.TID 0000.0001) %MON trcstat_ptracer65_min        =  -7.0363779823151999E-17
(PID.TID 0000.0001) %MON trcstat_ptracer65_mean       =   1.4978126278840344E-05
(PID.TID 0000.0001) %MON trcstat_ptracer65_sd         =   2.1608478786628853E-04
(PID.TID 0000.0001) %MON trcstat_ptracer65_del2       =   5.4234963198448143E-06
(PID.TID 0000.0001) %MON trcstat_ptracer66_max        =   6.7160809262110837E-03
(PID.TID 0000.0001) %MON trcstat_ptracer66_min        =  -3.2070499543220033E-16
(PID.TID 0000.0001) %MON trcstat_ptracer66_mean       =   1.4978125699483811E-05
(PID.TID 0000.0001) %MON trcstat_ptracer66_sd         =   2.1608478792789411E-04
(PID.TID 0000.0001) %MON trcstat_ptracer66_del2       =   5.4234963196570406E-06
(PID.TID 0000.0001) %MON trcstat_ptracer67_max        =   1.3736084507503570E-02
(PID.TID 0000.0001) %MON trcstat_ptracer67_min        =   9.3803184835652879E-29
(PID.TID 0000.0001) %MON trcstat_ptracer67_mean       =   2.9833476152897439E-05
(PID.TID 0000.0001) %MON trcstat_ptracer67_sd         =   4.1775358703774273E-04
(PID.TID 0000.0001) %MON trcstat_ptracer67_del2       =   5.4920863283725546E-06
(PID.TID 0000.0001) %MON trcstat_ptracer68_max        =   6.7160809286445954E-03
(PID.TID 0000.0001) %MON trcstat_ptracer68_min        =   1.1981322737831647E-48
(PID.TID 0000.0001) %MON trcstat_ptracer68_mean       =   1.4978292998680590E-05
(PID.TID 0000.0001) %MON trcstat_ptracer68_sd         =   2.1608477619468886E-04
(PID.TID 0000.0001) %MON trcstat_ptracer68_del2       =   5.4234963292426440E-06
(PID.TID 0000.0001) %MON trcstat_ptracer69_max        =   2.2825633352273118E+00
(PID.TID 0000.0001) %MON trcstat_ptracer69_min        =  -4.6291581999815983E-17
(PID.TID 0000.0001) %MON trcstat_ptracer69_mean       =   7.5128007146496381E-02
(PID.TID 0000.0001) %MON trcstat_ptracer69_sd         =   2.0146212574814787E-01
(PID.TID 0000.0001) %MON trcstat_ptracer69_del2       =   1.2068343674944474E-03
(PID.TID 0000.0001) %MON trcstat_ptracer70_max        =   6.4885558153352715E-03
(PID.TID 0000.0001) %MON trcstat_ptracer70_min        =  -1.6034012013721475E-16
(PID.TID 0000.0001) %MON trcstat_ptracer70_mean       =   1.3888117611274750E-05
(PID.TID 0000.0001) %MON trcstat_ptracer70_sd         =   2.1013862044132927E-04
(PID.TID 0000.0001) %MON trcstat_ptracer70_del2       =   5.4449905361145366E-06
(PID.TID 0000.0001) %MON trcstat_ptracer71_max        =   6.4969872925714021E-03
(PID.TID 0000.0001) %MON trcstat_ptracer71_min        =   5.9707138504922918E-35
(PID.TID 0000.0001) %MON trcstat_ptracer71_mean       =   1.6604899940562456E-05
(PID.TID 0000.0001) %MON trcstat_ptracer71_sd         =   2.1812318996490370E-04
(PID.TID 0000.0001) %MON trcstat_ptracer71_del2       =   5.3380389647416077E-06
(PID.TID 0000.0001) %MON trcstat_ptracer72_max        =   6.2875543795656913E-03
(PID.TID 0000.0001) %MON trcstat_ptracer72_min        =  -2.9404870413890985E-17
(PID.TID 0000.0001) %MON trcstat_ptracer72_mean       =   1.2723714759644280E-05
(PID.TID 0000.0001) %MON trcstat_ptracer72_sd         =   1.9879652240653792E-04
(PID.TID 0000.0001) %MON trcstat_ptracer72_del2       =   5.5465273532995072E-06
(PID.TID 0000.0001) %MON trcstat_ptracer73_max        =   6.2875543900119081E-03
(PID.TID 0000.0001) %MON trcstat_ptracer73_min        =   8.1248848098954335E-27
(PID.TID 0000.0001) %MON trcstat_ptracer73_mean       =   1.2723739760448548E-05
(PID.TID 0000.0001) %MON trcstat_ptracer73_sd         =   1.9879652170921036E-04
(PID.TID 0000.0001) %MON trcstat_ptracer73_del2       =   5.5465273475172080E-06
(PID.TID 0000.0001) %MON trcstat_ptracer74_max        =   6.2875543795312544E-03
(PID.TID 0000.0001) %MON trcstat_ptracer74_min        =  -1.6416116159769088E-15
(PID.TID 0000.0001) %MON trcstat_ptracer74_mean       =   1.2723714757456230E-05
(PID.TID 0000.0001) %MON trcstat_ptracer74_sd         =   1.9879652240527786E-04
(PID.TID 0000.0001) %MON trcstat_ptracer74_del2       =   5.5465273533170620E-06
(PID.TID 0000.0001) %MON trcstat_ptracer75_max        =   1.1563372694077193E+01
(PID.TID 0000.0001) %MON trcstat_ptracer75_min        =   3.9154933621702288E-13
(PID.TID 0000.0001) %MON trcstat_ptracer75_mean       =   8.1533559683941570E-01
(PID.TID 0000.0001) %MON trcstat_ptracer75_sd         =   1.2499489827991241E+00
(PID.TID 0000.0001) %MON trcstat_ptracer75_del2       =   7.5239554734345335E-03
(PID.TID 0000.0001) %MON trcstat_ptracer76_max        =   6.7160809264748119E-03
(PID.TID 0000.0001) %MON trcstat_ptracer76_min        =  -1.7801553757563745E-21
(PID.TID 0000.0001) %MON trcstat_ptracer76_mean       =   1.4978149687838477E-05
(PID.TID 0000.0001) %MON trcstat_ptracer76_sd         =   2.1608478621782076E-04
(PID.TID 0000.0001) %MON trcstat_ptracer76_del2       =   5.4234963217216724E-06
(PID.TID 0000.0001) %MON trcstat_ptracer77_max        =   6.7394709529278807E-03
(PID.TID 0000.0001) %MON trcstat_ptracer77_min        =   1.0473705014628884E-48
(PID.TID 0000.0001) %MON trcstat_ptracer77_mean       =   1.6951172544566519E-05
(PID.TID 0000.0001) %MON trcstat_ptracer77_sd         =   2.4144707482642719E-04
(PID.TID 0000.0001) %MON trcstat_ptracer77_del2       =   5.1421339830618694E-06
(PID.TID 0000.0001) %MON trcstat_ptracer78_max        =   1.7693726407651954E-02
(PID.TID 0000.0001) %MON trcstat_ptracer78_min        =  -6.4025918774347776E-41
(PID.TID 0000.0001) %MON trcstat_ptracer78_mean       =   6.2539544800837139E-05
(PID.TID 0000.0001) %MON trcstat_ptracer78_sd         =   6.2819084007913314E-04
(PID.TID 0000.0001) %MON trcstat_ptracer78_del2       =   5.5086829648420260E-06
(PID.TID 0000.0001) %MON trcstat_ptracer79_max        =   2.5533849764981982E+00
(PID.TID 0000.0001) %MON trcstat_ptracer79_min        =   2.5968499507541570E-33
(PID.TID 0000.0001) %MON trcstat_ptracer79_mean       =   1.6113645824277108E-02
(PID.TID 0000.0001) %MON trcstat_ptracer79_sd         =   1.0103079475887734E-01
(PID.TID 0000.0001) %MON trcstat_ptracer79_del2       =   5.9343214858073026E-04
(PID.TID 0000.0001) %MON trcstat_ptracer80_max        =   2.3194180193642461E-02
(PID.TID 0000.0001) %MON trcstat_ptracer80_min        =  -4.3001544464234664E-26
(PID.TID 0000.0001) %MON trcstat_ptracer80_mean       =   6.4854017479339264E-05
(PID.TID 0000.0001) %MON trcstat_ptracer80_sd         =   7.9389216815170299E-04
(PID.TID 0000.0001) %MON trcstat_ptracer80_del2       =   8.7017889398613606E-06
(PID.TID 0000.0001) %MON trcstat_ptracer81_max        =   6.7162844142026491E-03
(PID.TID 0000.0001) %MON trcstat_ptracer81_min        =   1.0115682715689556E-48
(PID.TID 0000.0001) %MON trcstat_ptracer81_mean       =   1.5044666441185278E-05
(PID.TID 0000.0001) %MON trcstat_ptracer81_sd         =   2.1609586531785017E-04
(PID.TID 0000.0001) %MON trcstat_ptracer81_del2       =   5.4234295419594934E-06
(PID.TID 0000.0001) %MON trcstat_ptracer82_max        =   6.2875543796097853E-03
(PID.TID 0000.0001) %MON trcstat_ptracer82_min        =  -3.0912574428382941E-15
(PID.TID 0000.0001) %MON trcstat_ptracer82_mean       =   1.2723714757679919E-05
(PID.TID 0000.0001) %MON trcstat_ptracer82_sd         =   1.9879652240905086E-04
(PID.TID 0000.0001) %MON trcstat_ptracer82_del2       =   5.5465273532802406E-06
(PID.TID 0000.0001) %MON trcstat_ptracer83_max        =   6.7160809261229719E-03
(PID.TID 0000.0001) %MON trcstat_ptracer83_min        =  -2.2534293845650168E-16
(PID.TID 0000.0001) %MON trcstat_ptracer83_mean       =   1.4978125697238794E-05
(PID.TID 0000.0001) %MON trcstat_ptracer83_sd         =   2.1608478792088954E-04
(PID.TID 0000.0001) %MON trcstat_ptracer83_del2       =   5.4234963197171308E-06
(PID.TID 0000.0001) %MON trcstat_ptracer84_max        =   6.7160809262158516E-03
(PID.TID 0000.0001) %MON trcstat_ptracer84_min        =  -1.3626434516072474E-16
(PID.TID 0000.0001) %MON trcstat_ptracer84_mean       =   1.4978125712980964E-05
(PID.TID 0000.0001) %MON trcstat_ptracer84_sd         =   2.1608478792636493E-04
(PID.TID 0000.0001) %MON trcstat_ptracer84_del2       =   5.4234963196601128E-06
(PID.TID 0000.0001) %MON trcstat_ptracer85_max        =   7.5904337762751428E+00
(PID.TID 0000.0001) %MON trcstat_ptracer85_min        =   5.5374921837210553E-28
(PID.TID 0000.0001) %MON trcstat_ptracer85_mean       =   4.4243044391546305E-01
(PID.TID 0000.0001) %MON trcstat_ptracer85_sd         =   9.5958716129934762E-01
(PID.TID 0000.0001) %MON trcstat_ptracer85_del2       =   3.5990363071408621E-03
(PID.TID 0000.0001) %MON trcstat_ptracer86_max        =   6.4885558153515615E-03
(PID.TID 0000.0001) %MON trcstat_ptracer86_min        =  -1.6307328206467865E-16
(PID.TID 0000.0001) %MON trcstat_ptracer86_mean       =   1.3888117611271580E-05
(PID.TID 0000.0001) %MON trcstat_ptracer86_sd         =   2.1013862044137418E-04
(PID.TID 0000.0001) %MON trcstat_ptracer86_del2       =   5.4449905361162281E-06
(PID.TID 0000.0001) %MON trcstat_ptracer87_max        =   2.9091624759902453E-02
(PID.TID 0000.0001) %MON trcstat_ptracer87_min        =   2.8300201843640218E-22
(PID.TID 0000.0001) %MON trcstat_ptracer87_mean       =   6.6222467185079431E-05
(PID.TID 0000.0001) %MON trcstat_ptracer87_sd         =   8.5355120191024886E-04
(PID.TID 0000.0001) %MON trcstat_ptracer87_del2       =   1.1769889384256287E-05
(PID.TID 0000.0001) %MON trcstat_ptracer88_max        =   3.9441592086043684E-02
(PID.TID 0000.0001) %MON trcstat_ptracer88_min        =   1.0759004142768846E-40
(PID.TID 0000.0001) %MON trcstat_ptracer88_mean       =   1.9917449110001551E-04
(PID.TID 0000.0001) %MON trcstat_ptracer88_sd         =   1.6449240955052646E-03
(PID.TID 0000.0001) %MON trcstat_ptracer88_del2       =   1.2259419036672297E-05
(PID.TID 0000.0001) %MON trcstat_ptracer89_max        =   8.9003370362050893E-01
(PID.TID 0000.0001) %MON trcstat_ptracer89_min        =   4.0867672350394279E-31
(PID.TID 0000.0001) %MON trcstat_ptracer89_mean       =   1.2954623807030882E-02
(PID.TID 0000.0001) %MON trcstat_ptracer89_sd         =   5.1372757518708324E-02
(PID.TID 0000.0001) %MON trcstat_ptracer89_del2       =   4.1117527353844250E-04
(PID.TID 0000.0001) %MON trcstat_ptracer90_max        =   6.2875551366094844E-03
(PID.TID 0000.0001) %MON trcstat_ptracer90_min        =   1.4893951594055221E-26
(PID.TID 0000.0001) %MON trcstat_ptracer90_mean       =   1.2723857100579615E-05
(PID.TID 0000.0001) %MON trcstat_ptracer90_sd         =   1.9879656357343133E-04
(PID.TID 0000.0001) %MON trcstat_ptracer90_del2       =   5.5465270955659551E-06
(PID.TID 0000.0001) %MON trcstat_ptracer91_max        =   6.7160809262126198E-03
(PID.TID 0000.0001) %MON trcstat_ptracer91_min        =  -5.0819751305603917E-16
(PID.TID 0000.0001) %MON trcstat_ptracer91_mean       =   1.4978125697484151E-05
(PID.TID 0000.0001) %MON trcstat_ptracer91_sd         =   2.1608478792718109E-04
(PID.TID 0000.0001) %MON trcstat_ptracer91_del2       =   5.4234963196608599E-06
(PID.TID 0000.0001) %MON trcstat_ptracer92_max        =   6.2875543795201964E-03
(PID.TID 0000.0001) %MON trcstat_ptracer92_min        =  -3.2257890776075285E-15
(PID.TID 0000.0001) %MON trcstat_ptracer92_mean       =   1.2723714757411935E-05
(PID.TID 0000.0001) %MON trcstat_ptracer92_sd         =   1.9879652240523379E-04
(PID.TID 0000.0001) %MON trcstat_ptracer92_del2       =   5.5465273533163750E-06
(PID.TID 0000.0001) %MON trcstat_ptracer93_max        =   9.7779318231865919E-02
(PID.TID 0000.0001) %MON trcstat_ptracer93_min        =   1.2000000000826991E-48
(PID.TID 0000.0001) %MON trcstat_ptracer93_mean       =   1.8980839890682028E-04
(PID.TID 0000.0001) %MON trcstat_ptracer93_sd         =   1.9098566990601942E-03
(PID.TID 0000.0001) %MON trcstat_ptracer93_del2       =   1.6031092588167371E-05
(PID.TID 0000.0001) %MON trcstat_ptracer94_max        =   8.8525918470716714E-03
(PID.TID 0000.0001) %MON trcstat_ptracer94_min        =  -1.2171296631000868E-21
(PID.TID 0000.0001) %MON trcstat_ptracer94_mean       =   2.4659671885258864E-05
(PID.TID 0000.0001) %MON trcstat_ptracer94_sd         =   3.4451638670664642E-04
(PID.TID 0000.0001) %MON trcstat_ptracer94_del2       =   4.7386781454685243E-06
(PID.TID 0000.0001) %MON trcstat_ptracer95_max        =   6.4885558152287318E-03
(PID.TID 0000.0001) %MON trcstat_ptracer95_min        =  -1.1863460412188218E-19
(PID.TID 0000.0001) %MON trcstat_ptracer95_mean       =   1.3888117644397807E-05
(PID.TID 0000.0001) %MON trcstat_ptracer95_sd         =   2.1013862043416196E-04
(PID.TID 0000.0001) %MON trcstat_ptracer95_del2       =   5.4449905361492853E-06
(PID.TID 0000.0001) %MON trcstat_ptracer96_max        =   8.3577425651905435E-01
(PID.TID 0000.0001) %MON trcstat_ptracer96_min        =   8.2139158664696863E-31
(PID.TID 0000.0001) %MON trcstat_ptracer96_mean       =   5.6466555035307467E-02
(PID.TID 0000.0001) %MON trcstat_ptracer96_sd         =   1.3259546558537799E-01
(PID.TID 0000.0001) %MON trcstat_ptracer96_del2       =   4.3168497783822011E-04
(PID.TID 0000.0001) %MON trcstat_ptracer97_max        =   1.0126026589248502E+01
(PID.TID 0000.0001) %MON trcstat_ptracer97_min        =   1.0392950362084115E-20
(PID.TID 0000.0001) %MON trcstat_ptracer97_mean       =   2.0380324698912297E-01
(PID.TID 0000.0001) %MON trcstat_ptracer97_sd         =   8.9779252152024525E-01
(PID.TID 0000.0001) %MON trcstat_ptracer97_del2       =   3.8640861797428656E-03
(PID.TID 0000.0001) // =======================================================
(PID.TID 0000.0001) // End MONITOR ptracers field statistics
(PID.TID 0000.0001) // =======================================================
(PID.TID 0000.0001)  EXF_INTERP_READ: opening file: LEV01_SSS_360x180x12.bin
(PID.TID 0000.0001) EXF_INTERP: file="LEV01_SSS_360x180x12.bin", rec=     2 , x-Per,P.Sym=    T    T
(PID.TID 0000.0001) S.edge (j=-1,0,1) : proc= 2.2 1.1 0.0, yIn=  -90.500000  -90.000000  -89.500000
(PID.TID 0000.0001) N.edge (j=+0,+1,+2) proc= 0.0 1.1 2.2, yIn=   89.500000   90.000000   90.500000
(PID.TID 0000.0001)  EXF_INTERP_READ: opening file: LEV01_SSS_360x180x12.bin
(PID.TID 0000.0001) EXF_INTERP: file="LEV01_SSS_360x180x12.bin", rec=     3 , x-Per,P.Sym=    T    T
(PID.TID 0000.0001) S.edge (j=-1,0,1) : proc= 2.2 1.1 0.0, yIn=  -90.500000  -90.000000  -89.500000
(PID.TID 0000.0001) N.edge (j=+0,+1,+2) proc= 0.0 1.1 2.2, yIn=   89.500000   90.000000   90.500000
(PID.TID 0000.0001)  EXF_INTERP_READ: opening file: RG_u10m99
(PID.TID 0000.0001)  EXF_INTERP_READ: opening file: RG_v10m99
(PID.TID 0000.0001) EXF_INTERP_UV: fileU="RG_u10m99", rec=     1 , x-Per,P.Sym=    T    T
(PID.TID 0000.0001) S.edge (j=-1,0,1) : proc= 2.2 1.1 0.0, yIn=  -91.458000  -90.000000  -88.542000
(PID.TID 0000.0001) N.edge (j=+0,+1,+2) proc= 0.0 1.1 2.2, yIn=   88.542000   90.000000   91.458000
(PID.TID 0000.0001)  EXF_INTERP_READ: opening file: RG_u10m99
(PID.TID 0000.0001)  EXF_INTERP_READ: opening file: RG_v10m99
(PID.TID 0000.0001) EXF_INTERP_UV: fileU="RG_u10m99", rec=     2 , x-Per,P.Sym=    T    T
(PID.TID 0000.0001) S.edge (j=-1,0,1) : proc= 2.2 1.1 0.0, yIn=  -91.458000  -90.000000  -88.542000
(PID.TID 0000.0001) N.edge (j=+0,+1,+2) proc= 0.0 1.1 2.2, yIn=   88.542000   90.000000   91.458000
(PID.TID 0000.0001)  EXF_INTERP_READ: opening file: RG_tmp2m99
(PID.TID 0000.0001) EXF_INTERP: file="RG_tmp2m99", rec=     1 , x-Per,P.Sym=    T    T
(PID.TID 0000.0001) S.edge (j=-1,0,1) : proc= 2.2 1.1 0.0, yIn=  -91.458000  -90.000000  -88.542000
(PID.TID 0000.0001) N.edge (j=+0,+1,+2) proc= 0.0 1.1 2.2, yIn=   88.542000   90.000000   91.458000
(PID.TID 0000.0001)  EXF_INTERP_READ: opening file: RG_tmp2m99
(PID.TID 0000.0001) EXF_INTERP: file="RG_tmp2m99", rec=     2 , x-Per,P.Sym=    T    T
(PID.TID 0000.0001) S.edge (j=-1,0,1) : proc= 2.2 1.1 0.0, yIn=  -91.458000  -90.000000  -88.542000
(PID.TID 0000.0001) N.edge (j=+0,+1,+2) proc= 0.0 1.1 2.2, yIn=   88.542000   90.000000   91.458000
(PID.TID 0000.0001)  EXF_INTERP_READ: opening file: RG_spfh2m99
(PID.TID 0000.0001) EXF_INTERP: file="RG_spfh2m99", rec=     1 , x-Per,P.Sym=    T    T
(PID.TID 0000.0001) S.edge (j=-1,0,1) : proc= 2.2 1.1 0.0, yIn=  -91.458000  -90.000000  -88.542000
(PID.TID 0000.0001) N.edge (j=+0,+1,+2) proc= 0.0 1.1 2.2, yIn=   88.542000   90.000000   91.458000
(PID.TID 0000.0001)  EXF_INTERP_READ: opening file: RG_spfh2m99
(PID.TID 0000.0001) EXF_INTERP: file="RG_spfh2m99", rec=     2 , x-Per,P.Sym=    T    T
(PID.TID 0000.0001) S.edge (j=-1,0,1) : proc= 2.2 1.1 0.0, yIn=  -91.458000  -90.000000  -88.542000
(PID.TID 0000.0001) N.edge (j=+0,+1,+2) proc= 0.0 1.1 2.2, yIn=   88.542000   90.000000   91.458000
(PID.TID 0000.0001)  EXF_INTERP_READ: opening file: RG_rain99
(PID.TID 0000.0001) EXF_INTERP: file="RG_rain99", rec=     1 , x-Per,P.Sym=    T    T
(PID.TID 0000.0001) S.edge (j=-1,0,1) : proc= 2.2 1.1 0.0, yIn=  -91.458000  -90.000000  -88.542000
(PID.TID 0000.0001) N.edge (j=+0,+1,+2) proc= 0.0 1.1 2.2, yIn=   88.542000   90.000000   91.458000
(PID.TID 0000.0001)  EXF_INTERP_READ: opening file: RG_rain99
(PID.TID 0000.0001) EXF_INTERP: file="RG_rain99", rec=     2 , x-Per,P.Sym=    T    T
(PID.TID 0000.0001) S.edge (j=-1,0,1) : proc= 2.2 1.1 0.0, yIn=  -91.458000  -90.000000  -88.542000
(PID.TID 0000.0001) N.edge (j=+0,+1,+2) proc= 0.0 1.1 2.2, yIn=   88.542000   90.000000   91.458000
(PID.TID 0000.0001)  EXF_INTERP_READ: opening file: RG_dsw99
(PID.TID 0000.0001) EXF_INTERP: file="RG_dsw99", rec=     1 , x-Per,P.Sym=    T    T
(PID.TID 0000.0001) S.edge (j=-1,0,1) : proc= 2.2 1.1 0.0, yIn=  -91.458000  -90.000000  -88.542000
(PID.TID 0000.0001) N.edge (j=+0,+1,+2) proc= 0.0 1.1 2.2, yIn=   88.542000   90.000000   91.458000
(PID.TID 0000.0001)  EXF_INTERP_READ: opening file: RG_dsw99
(PID.TID 0000.0001) EXF_INTERP: file="RG_dsw99", rec=     2 , x-Per,P.Sym=    T    T
(PID.TID 0000.0001) S.edge (j=-1,0,1) : proc= 2.2 1.1 0.0, yIn=  -91.458000  -90.000000  -88.542000
(PID.TID 0000.0001) N.edge (j=+0,+1,+2) proc= 0.0 1.1 2.2, yIn=   88.542000   90.000000   91.458000
(PID.TID 0000.0001)  EXF_INTERP_READ: opening file: RG_dlw99
(PID.TID 0000.0001) EXF_INTERP: file="RG_dlw99", rec=     1 , x-Per,P.Sym=    T    T
(PID.TID 0000.0001) S.edge (j=-1,0,1) : proc= 2.2 1.1 0.0, yIn=  -91.458000  -90.000000  -88.542000
(PID.TID 0000.0001) N.edge (j=+0,+1,+2) proc= 0.0 1.1 2.2, yIn=   88.542000   90.000000   91.458000
(PID.TID 0000.0001)  EXF_INTERP_READ: opening file: RG_dlw99
(PID.TID 0000.0001) EXF_INTERP: file="RG_dlw99", rec=     2 , x-Per,P.Sym=    T    T
(PID.TID 0000.0001) S.edge (j=-1,0,1) : proc= 2.2 1.1 0.0, yIn=  -91.458000  -90.000000  -88.542000
(PID.TID 0000.0001) N.edge (j=+0,+1,+2) proc= 0.0 1.1 2.2, yIn=   88.542000   90.000000   91.458000
(PID.TID 0000.0001)  EXF_INTERP_READ: opening file: runoff-360x180x12.bin
(PID.TID 0000.0001) EXF_INTERP: file="runoff-360x180x12.bin", rec=     2 , x-Per,P.Sym=    T    T
(PID.TID 0000.0001) S.edge (j=-1,0,1) : proc= 2.2 1.1 0.0, yIn=  -90.500000  -90.000000  -89.500000
(PID.TID 0000.0001) N.edge (j=+0,+1,+2) proc= 0.0 1.1 2.2, yIn=   89.500000   90.000000   90.500000
(PID.TID 0000.0001)  EXF_INTERP_READ: opening file: runoff-360x180x12.bin
(PID.TID 0000.0001) EXF_INTERP: file="runoff-360x180x12.bin", rec=     3 , x-Per,P.Sym=    T    T
(PID.TID 0000.0001) S.edge (j=-1,0,1) : proc= 2.2 1.1 0.0, yIn=  -90.500000  -90.000000  -89.500000
(PID.TID 0000.0001) N.edge (j=+0,+1,+2) proc= 0.0 1.1 2.2, yIn=   89.500000   90.000000   90.500000
(PID.TID 0000.0001) // =======================================================
(PID.TID 0000.0001) // Begin MONITOR EXF statistics
(PID.TID 0000.0001) // =======================================================
(PID.TID 0000.0001) %MON exf_tsnumber                 =                188388
(PID.TID 0000.0001) %MON exf_time_sec                 =   2.2606560000000000E+08
(PID.TID 0000.0001) %MON exf_ustress_max              =   2.9394391776597167E-01
(PID.TID 0000.0001) %MON exf_ustress_min              =  -3.1761488519510273E-02
(PID.TID 0000.0001) %MON exf_ustress_mean             =   8.5937350050417166E-02
(PID.TID 0000.0001) %MON exf_ustress_sd               =   8.1385339580268654E-02
(PID.TID 0000.0001) %MON exf_ustress_del2             =   6.5554613890345597E-05
(PID.TID 0000.0001) %MON exf_vstress_max              =   1.7334424427600822E-01
(PID.TID 0000.0001) %MON exf_vstress_min              =  -2.1185366257222527E-01
(PID.TID 0000.0001) %MON exf_vstress_mean             =  -2.3236325630763568E-02
(PID.TID 0000.0001) %MON exf_vstress_sd               =   8.3876164517816529E-02
(PID.TID 0000.0001) %MON exf_vstress_del2             =   6.1706239331491212E-05
(PID.TID 0000.0001) %MON exf_hflux_max                =   6.1541024589327634E+01
(PID.TID 0000.0001) %MON exf_hflux_min                =  -1.8300501005521983E+02
(PID.TID 0000.0001) %MON exf_hflux_mean               =  -8.1771934264864854E+01
(PID.TID 0000.0001) %MON exf_hflux_sd                 =   5.9618160702139669E+01
(PID.TID 0000.0001) %MON exf_hflux_del2               =   7.4952580086832810E-01
(PID.TID 0000.0001) %MON exf_sflux_max                =   1.4030410288186672E-08
(PID.TID 0000.0001) %MON exf_sflux_min                =  -3.1155560795421053E-07
(PID.TID 0000.0001) %MON exf_sflux_mean               =  -1.0170357765268858E-07
(PID.TID 0000.0001) %MON exf_sflux_sd                 =   7.8656188660321958E-08
(PID.TID 0000.0001) %MON exf_sflux_del2               =   1.2843940037440500E-09
(PID.TID 0000.0001) %MON exf_uwind_max                =   1.2317190647434675E+01
(PID.TID 0000.0001) %MON exf_uwind_min                =  -2.3903590206673742E+00
(PID.TID 0000.0001) %MON exf_uwind_mean               =   6.0492167415949112E+00
(PID.TID 0000.0001) %MON exf_uwind_sd                 =   3.6622264422297519E+00
(PID.TID 0000.0001) %MON exf_uwind_del2               =   5.3353177547235217E-02
(PID.TID 0000.0001) %MON exf_vwind_max                =   1.0789716630427980E+01
(PID.TID 0000.0001) %MON exf_vwind_min                =  -9.1261856514073170E+00
(PID.TID 0000.0001) %MON exf_vwind_mean               =  -1.3315521434182331E+00
(PID.TID 0000.0001) %MON exf_vwind_sd                 =   5.5914773814023029E+00
(PID.TID 0000.0001) %MON exf_vwind_del2               =   4.9788827979912034E-02
(PID.TID 0000.0001) %MON exf_wspeed_max               =   1.4160725157879011E+01
(PID.TID 0000.0001) %MON exf_wspeed_min               =   3.8459773364918668E+00
(PID.TID 0000.0001) %MON exf_wspeed_mean              =   8.7455992974872760E+00
(PID.TID 0000.0001) %MON exf_wspeed_sd                =   2.5606774584324636E+00
(PID.TID 0000.0001) %MON exf_wspeed_del2              =   7.2797188189894640E-02
(PID.TID 0000.0001) %MON exf_atemp_max                =   2.7988827275952491E+02
(PID.TID 0000.0001) %MON exf_atemp_min                =   2.6683249899485168E+02
(PID.TID 0000.0001) %MON exf_atemp_mean               =   2.7521584073434735E+02
(PID.TID 0000.0001) %MON exf_atemp_sd                 =   2.5892937073677897E+00
(PID.TID 0000.0001) %MON exf_atemp_del2               =   1.8775445471134210E-02
(PID.TID 0000.0001) %MON exf_aqh_max                  =   6.0824245051496750E-03
(PID.TID 0000.0001) %MON exf_aqh_min                  =   2.3838363815137640E-03
(PID.TID 0000.0001) %MON exf_aqh_mean                 =   4.3398602863578281E-03
(PID.TID 0000.0001) %MON exf_aqh_sd                   =   7.4961998284994496E-04
(PID.TID 0000.0001) %MON exf_aqh_del2                 =   2.9513031600969912E-05
(PID.TID 0000.0001) %MON exf_lwflux_max               =   8.1704897678893360E+01
(PID.TID 0000.0001) %MON exf_lwflux_min               =   6.7007804364508843E+00
(PID.TID 0000.0001) %MON exf_lwflux_mean              =   3.8521840858567806E+01
(PID.TID 0000.0001) %MON exf_lwflux_sd                =   1.8708438712986730E+01
(PID.TID 0000.0001) %MON exf_lwflux_del2              =   2.6747642069133332E-01
(PID.TID 0000.0001) %MON exf_precip_max               =   3.1273821905607509E-07
(PID.TID 0000.0001) %MON exf_precip_min               =   3.3477852854883342E-11
(PID.TID 0000.0001) %MON exf_precip_mean              =   9.8075315917480652E-08
(PID.TID 0000.0001) %MON exf_precip_sd                =   7.7738114954623821E-08
(PID.TID 0000.0001) %MON exf_precip_del2              =   1.3141098344281797E-09
(PID.TID 0000.0001) %MON exf_swflux_max               =  -9.3170662713583354E+01
(PID.TID 0000.0001) %MON exf_swflux_min               =  -2.0946293795909762E+02
(PID.TID 0000.0001) %MON exf_swflux_mean              =  -1.3996295759359020E+02
(PID.TID 0000.0001) %MON exf_swflux_sd                =   2.9093274456610519E+01
(PID.TID 0000.0001) %MON exf_swflux_del2              =   9.3316808009631858E-01
(PID.TID 0000.0001) %MON exf_evap_max                 =   2.6727244315913114E-08
(PID.TID 0000.0001) %MON exf_evap_min                 =  -1.4510406179073372E-08
(PID.TID 0000.0001) %MON exf_evap_mean                =   5.0354480822051371E-09
(PID.TID 0000.0001) %MON exf_evap_sd                  =   8.7799952520969037E-09
(PID.TID 0000.0001) %MON exf_evap_del2                =   8.9452426572479750E-11
(PID.TID 0000.0001) %MON exf_swdown_max               =   2.4642698583423248E+02
(PID.TID 0000.0001) %MON exf_swdown_min               =   1.0961254436892159E+02
(PID.TID 0000.0001) %MON exf_swdown_mean              =   1.6466230305128249E+02
(PID.TID 0000.0001) %MON exf_swdown_sd                =   3.4227381713659440E+01
(PID.TID 0000.0001) %MON exf_swdown_del2              =   1.0978448001133161E+00
(PID.TID 0000.0001) %MON exf_lwdown_max               =   3.0646818022017055E+02
(PID.TID 0000.0001) %MON exf_lwdown_min               =   2.4299730831545475E+02
(PID.TID 0000.0001) %MON exf_lwdown_mean              =   2.7653909714197744E+02
(PID.TID 0000.0001) %MON exf_lwdown_sd                =   1.4929120997289791E+01
(PID.TID 0000.0001) %MON exf_lwdown_del2              =   2.0802790075976501E+00
(PID.TID 0000.0001) %MON exf_runoff_max               =   7.4975011851692206E-08
(PID.TID 0000.0001) %MON exf_runoff_min               =   0.0000000000000000E+00
(PID.TID 0000.0001) %MON exf_runoff_mean              =   8.6637098174130328E-09
(PID.TID 0000.0001) %MON exf_runoff_sd                =   1.9487938307725037E-08
(PID.TID 0000.0001) %MON exf_runoff_del2              =   6.8076164467882094E-11
(PID.TID 0000.0001) %MON exf_climsss_max              =   3.4374380765675554E+01
(PID.TID 0000.0001) %MON exf_climsss_min              =   2.9702162078915624E+00
(PID.TID 0000.0001) %MON exf_climsss_mean             =   1.2720684664496094E+01
(PID.TID 0000.0001) %MON exf_climsss_sd               =   1.0010476552237474E+01
(PID.TID 0000.0001) %MON exf_climsss_del2             =   3.2300386746811440E-03
(PID.TID 0000.0001) // =======================================================
(PID.TID 0000.0001) // End MONITOR EXF statistics
(PID.TID 0000.0001) // =======================================================
(PID.TID 0000.0001)  MDS_READ_FIELD: opening global file: Fe_const_76x72_12_99
(PID.TID 0000.0001)  MDS_READ_FIELD: opening global file: Fe_const_76x72_12_99
 SEAICE_LSR: Residual Initial ipass,Uice,Vice=    1  4.42908279E-02  2.89816433E-02
 SEAICE_LSR (ipass=   1) iters,dU,Resid=   332  9.82876974E-14  6.75049515E-13
 SEAICE_LSR (ipass=   1) iters,dV,Resid=   698  9.56804080E-14  2.42513298E-12
 SEAICE_LSR: Residual Initial ipass,Uice,Vice=    2  3.03813970E-02  1.61203842E-02
 SEAICE_LSR (ipass=   2) iters,dU,Resid=   328  9.82989731E-14  6.51440481E-13
 SEAICE_LSR (ipass=   2) iters,dV,Resid=   704  9.45979406E-14  2.25269762E-12
(PID.TID 0000.0001) SOLVE_FOR_PRESSURE: putPmEinXvector =    F
 cg2d: Sum(rhs),rhsMax =  -6.12703270473217E+02  2.78614142115000E-01
(PID.TID 0000.0001)      cg2d_init_res =   1.49435103252240E-01
(PID.TID 0000.0001)      cg2d_iters(min,last) =      -1      20
(PID.TID 0000.0001)      cg2d_last_res =   5.36654880007232E-06
 obcs          15          -3   0.0000000000000000        1.0000000000000000     
 obcs          15          -2   0.0000000000000000        1.0000000000000000     
 obcs          15          -1   0.0000000000000000        1.0000000000000000     
 obcs          15           0   0.0000000000000000        1.0000000000000000     
 obcs          15           1   1.4546374015964717E-003   1.0000000000000000     
 obcs          15           2  0.26028830081034449        1.0000000000000000     
 obcs          15           3  0.56028943845428836        1.0000000000000000     
 obcs          15           4  0.64365626358595052        1.0000000000000000     
 obcs          15           5  0.68902122868540516        1.0000000000000000     
 obcs          15           6  0.90706570973053224        1.0000000000000000     
 obcs          15           7  0.63681489496554611        1.0000000000000000     
 obcs          15           8  0.84633055652317024        1.0000000000000000     
 obcs          15           9  0.83039263029241828        1.0000000000000000     
 obcs          15          10  0.80117990258395788        1.0000000000000000     
 obcs          15          11  0.79353832191565432        1.0000000000000000     
 obcs          15          12  0.75116999425631836        1.0000000000000000     
 obcs          15          13  0.77784313288651319        1.0000000000000000     
 obcs          15          14  0.70164568676106043        1.0000000000000000     
 obcs          15          15  0.66128790649994262        1.0000000000000000     
 obcs          15          16  0.57465422580286674        1.0000000000000000     
 obcs          15          17  0.43615391201090292        1.0000000000000000     
 obcs          15          18  0.24464319861801054        1.0000000000000000     
 obcs          15          19   6.3155028703563154E-002   1.0000000000000000     
 obcs          15          20   4.7011761358351313E-002   1.0000000000000000     
 obcs          15          21   4.3353773814718069E-002   1.0000000000000000     
 obcs          15          22   4.2080883365904806E-002   1.0000000000000000     
 obcs          15          23   0.0000000000000000        1.0000000000000000     
 obcs          15          24   0.0000000000000000        1.0000000000000000     
 obcs          15          25   0.0000000000000000        1.0000000000000000     
 obcs          15          26   0.0000000000000000        1.0000000000000000     
 obcs          15          27   0.0000000000000000        1.0000000000000000     
 obcs          15          28   0.0000000000000000        1.0000000000000000     
 obcs          15          29   0.0000000000000000        1.0000000000000000     
 obcs          15          30   0.0000000000000000        1.0000000000000000     
 obcs          15          31   0.0000000000000000        1.0000000000000000     
 obcs          15          32   0.0000000000000000        1.0000000000000000     
 obcs          15          33   0.0000000000000000        1.0000000000000000     
 obcs          15          34   0.0000000000000000        1.0000000000000000     
 obcs          15          35   0.0000000000000000        1.0000000000000000     
 obcs          15          36   0.0000000000000000        1.0000000000000000     
 obcs          15          37   0.0000000000000000        1.0000000000000000     
 obcs          15          38   0.0000000000000000        1.0000000000000000     
 obcs          15          39   0.0000000000000000        1.0000000000000000     
 obcs          15          40   0.0000000000000000        1.0000000000000000     
 obcs          15          41   0.0000000000000000        1.0000000000000000     
 obcs          15          42   0.0000000000000000        1.0000000000000000     
 obcs          15          -3   0.0000000000000000        1.0000000000000000     
 obcs          15          -2   0.0000000000000000        1.0000000000000000     
 obcs          15          -1   0.0000000000000000        1.0000000000000000     
 obcs          15           0   0.0000000000000000        1.0000000000000000     
 obcs          15           1   0.0000000000000000        1.0000000000000000     
 obcs          15           2   0.0000000000000000        1.0000000000000000     
 obcs          15           3   0.0000000000000000        1.0000000000000000     
 obcs          15           4   0.0000000000000000        1.0000000000000000     
 obcs          15           5   0.0000000000000000        1.0000000000000000     
 obcs          15           6   0.0000000000000000        1.0000000000000000     
 obcs          15           7   0.0000000000000000        1.0000000000000000     
 obcs          15           8   0.0000000000000000        1.0000000000000000     
 obcs          15           9   0.0000000000000000        1.0000000000000000     
 obcs          15          10   0.0000000000000000        1.0000000000000000     
 obcs          15          11   0.0000000000000000        1.0000000000000000     
 obcs          15          12   0.0000000000000000        1.0000000000000000     
 obcs          15          13   0.0000000000000000        1.0000000000000000     
 obcs          15          14   0.0000000000000000        1.0000000000000000     
 obcs          15          15   0.0000000000000000        1.0000000000000000     
 obcs          15          16   0.0000000000000000        1.0000000000000000     
 obcs          15          17   0.0000000000000000        1.0000000000000000     
 obcs          15          18   0.0000000000000000        1.0000000000000000     
 obcs          15          19   0.0000000000000000        1.0000000000000000     
 obcs          15          20   0.0000000000000000        1.0000000000000000     
 obcs          15          21   0.0000000000000000        1.0000000000000000     
 obcs          15          22   0.0000000000000000        1.0000000000000000     
 obcs          15          23   0.0000000000000000        1.0000000000000000     
 obcs          15          24   0.0000000000000000        1.0000000000000000     
 obcs          15          25   0.0000000000000000        1.0000000000000000     
 obcs          15          26   0.0000000000000000        1.0000000000000000     
 obcs          15          27   0.0000000000000000        1.0000000000000000     
 obcs          15          28   0.0000000000000000        1.0000000000000000     
 obcs          15          29   0.0000000000000000        1.0000000000000000     
 obcs          15          30   0.0000000000000000        1.0000000000000000     
 obcs          15          31   0.0000000000000000        1.0000000000000000     
 obcs          15          32   0.0000000000000000        1.0000000000000000     
 obcs          15          33   0.0000000000000000        1.0000000000000000     
 obcs          15          34   0.0000000000000000        1.0000000000000000     
 obcs          15          35   0.0000000000000000        1.0000000000000000     
 obcs          15          36   0.0000000000000000        1.0000000000000000     
 obcs          15          37   0.0000000000000000        1.0000000000000000     
 obcs          15          38   0.0000000000000000        1.0000000000000000     
 obcs          15          39   1.4722728556435275E-003   1.0000000000000000     
 obcs          15          40  0.39670997639682698        1.0000000000000000     
 obcs          15          41   1.9697176787390362        1.0000000000000000     
 obcs          15          42  0.80656361447760683        1.0000000000000000     
(PID.TID 0000.0001) totgC    1.4992489414338246E-06   5.3166725022253629E-20
(PID.TID 0000.0001) totgN    5.0816256624160578E-08   1.8020582625945923E-21
(PID.TID 0000.0001) totgP    3.8586628669641948E-09   1.3683682671489244E-22
(PID.TID 0000.0001) totgFe   1.4302166147646255E+02   5.0718684121082385E-12
(PID.TID 0000.0001) totgSi  -8.1485315180585607E-09  -2.8896517621780746E-22
 fe   0.0000000000000000     
 fe   0.0000000000000000     
 fe   0.0000000000000000     
 fe   0.0000000000000000     
(PID.TID 0000.0001) // =======================================================
(PID.TID 0000.0001) // Begin MONITOR dynamic field statistics
(PID.TID 0000.0001) // =======================================================
(PID.TID 0000.0001) %MON time_tsnumber                =                188389
(PID.TID 0000.0001) %MON time_secondsf                =   2.2606680000000000E+08
(PID.TID 0000.0001) %MON dynstat_eta_max              =   6.7030685866426276E-01
(PID.TID 0000.0001) %MON dynstat_eta_min              =   3.0675524996208504E-02
(PID.TID 0000.0001) %MON dynstat_eta_mean             =   3.7231676890311211E-01
(PID.TID 0000.0001) %MON dynstat_eta_sd               =   1.5401274269860216E-01
(PID.TID 0000.0001) %MON dynstat_eta_del2             =   3.3922585569730432E-04
(PID.TID 0000.0001) %MON dynstat_uvel_max             =   4.0427658883656747E-01
(PID.TID 0000.0001) %MON dynstat_uvel_min             =  -3.3655197193895081E-01
(PID.TID 0000.0001) %MON dynstat_uvel_mean            =   6.8337066880584333E-03
(PID.TID 0000.0001) %MON dynstat_uvel_sd              =   6.1828090180339440E-02
(PID.TID 0000.0001) %MON dynstat_uvel_del2            =   9.6675356942258492E-04
(PID.TID 0000.0001) %MON dynstat_vvel_max             =   2.7228620244799639E-01
(PID.TID 0000.0001) %MON dynstat_vvel_min             =  -4.5081903196454959E-01
(PID.TID 0000.0001) %MON dynstat_vvel_mean            =   2.1887405568343653E-03
(PID.TID 0000.0001) %MON dynstat_vvel_sd              =   6.4385334105218017E-02
(PID.TID 0000.0001) %MON dynstat_vvel_del2            =   1.1526857618237294E-03
(PID.TID 0000.0001) %MON dynstat_wvel_max             =   4.9719180526933528E-04
(PID.TID 0000.0001) %MON dynstat_wvel_min             =  -5.0624888369889384E-04
(PID.TID 0000.0001) %MON dynstat_wvel_mean            =  -2.6297873252593520E-06
(PID.TID 0000.0001) %MON dynstat_wvel_sd              =   7.5562636141747561E-05
(PID.TID 0000.0001) %MON dynstat_wvel_del2            =   2.0393794714857430E-06
(PID.TID 0000.0001) %MON dynstat_theta_max            =   7.9699951130505031E+00
(PID.TID 0000.0001) %MON dynstat_theta_min            =  -1.6138368576012232E+00
(PID.TID 0000.0001) %MON dynstat_theta_mean           =   3.7801243710116741E+00
(PID.TID 0000.0001) %MON dynstat_theta_sd             =   2.2016519933374323E+00
(PID.TID 0000.0001) %MON dynstat_theta_del2           =   6.0390733775969162E-03
(PID.TID 0000.0001) %MON dynstat_salt_max             =   3.4927789890302712E+01
(PID.TID 0000.0001) %MON dynstat_salt_min             =   5.6522115965321067E+00
(PID.TID 0000.0001) %MON dynstat_salt_mean            =   1.5353300956677314E+01
(PID.TID 0000.0001) %MON dynstat_salt_sd              =   1.1951757467562334E+01
(PID.TID 0000.0001) %MON dynstat_salt_del2            =   3.5920927215256564E-03
(PID.TID 0000.0001) %MON forcing_qnet_max             =   2.2587362825989922E+02
(PID.TID 0000.0001) %MON forcing_qnet_min             =  -1.0550515905430339E+03
(PID.TID 0000.0001) %MON forcing_qnet_mean            =  -6.1804809485653657E+01
(PID.TID 0000.0001) %MON forcing_qnet_sd              =   8.9938227787487875E+01
(PID.TID 0000.0001) %MON forcing_qnet_del2            =   4.1475826821482942E+00
(PID.TID 0000.0001) %MON forcing_qsw_max              =   0.0000000000000000E+00
(PID.TID 0000.0001) %MON forcing_qsw_min              =  -2.0946293795909762E+02
(PID.TID 0000.0001) %MON forcing_qsw_mean             =  -1.1357351059734771E+02
(PID.TID 0000.0001) %MON forcing_qsw_sd               =   6.3118138007537453E+01
(PID.TID 0000.0001) %MON forcing_qsw_del2             =   5.2784504932759169E-01
(PID.TID 0000.0001) %MON forcing_empmr_max            =   2.7950105869811344E-03
(PID.TID 0000.0001) %MON forcing_empmr_min            =  -1.0145497707443039E-03
(PID.TID 0000.0001) %MON forcing_empmr_mean           =  -9.9907302785302802E-05
(PID.TID 0000.0001) %MON forcing_empmr_sd             =   2.1346863425896425E-04
(PID.TID 0000.0001) %MON forcing_empmr_del2           =   1.2252488610737617E-05
(PID.TID 0000.0001) %MON forcing_fu_max               =   2.9264759531240292E-01
(PID.TID 0000.0001) %MON forcing_fu_min               =  -1.1522610738587666E-01
(PID.TID 0000.0001) %MON forcing_fu_mean              =   9.0757810297347294E-02
(PID.TID 0000.0001) %MON forcing_fu_sd                =   8.6491782076698442E-02
(PID.TID 0000.0001) %MON forcing_fu_del2              =   4.2126341709225571E-04
(PID.TID 0000.0001) %MON forcing_fv_max               =   2.1055607651677000E-01
(PID.TID 0000.0001) %MON forcing_fv_min               =  -2.1173279725226002E-01
(PID.TID 0000.0001) %MON forcing_fv_mean              =  -2.8494132460689263E-02
(PID.TID 0000.0001) %MON forcing_fv_sd                =   8.1391852693812897E-02
(PID.TID 0000.0001) %MON forcing_fv_del2              =   4.1351103219103259E-04
(PID.TID 0000.0001) %MON advcfl_uvel_max              =   2.3209289208327620E-02
(PID.TID 0000.0001) %MON advcfl_vvel_max              =   3.3115243277170615E-02
(PID.TID 0000.0001) %MON advcfl_wvel_max              =   5.9663016632320237E-02
(PID.TID 0000.0001) %MON advcfl_W_hf_max              =   5.9663016632320237E-02
(PID.TID 0000.0001) %MON pe_b_mean                    =   1.3735770051169173E-02
(PID.TID 0000.0001) %MON ke_max                       =   1.1040936946713800E-01
(PID.TID 0000.0001) %MON ke_mean                      =   3.2399560071246251E-03
(PID.TID 0000.0001) %MON ke_vol                       =   2.7634533915293965E+13
(PID.TID 0000.0001) %MON vort_r_min                   =  -3.7118806669736677E-05
(PID.TID 0000.0001) %MON vort_r_max                   =   3.2860433362046274E-05
(PID.TID 0000.0001) %MON vort_a_mean                  =   1.2397552904773671E-04
(PID.TID 0000.0001) %MON vort_a_sd                    =   6.2891174445577295E-06
(PID.TID 0000.0001) %MON vort_p_mean                  =   1.7325641031781363E-04
(PID.TID 0000.0001) %MON vort_p_sd                    =   1.0960917976981218E-04
(PID.TID 0000.0001) %MON surfExpan_theta_mean         =  -7.1198275640096405E-07
(PID.TID 0000.0001) %MON surfExpan_salt_mean          =   1.3439174567199081E-06
(PID.TID 0000.0001) // =======================================================
(PID.TID 0000.0001) // End MONITOR dynamic field statistics
(PID.TID 0000.0001) // =======================================================
(PID.TID 0000.0001) // =======================================================
(PID.TID 0000.0001) // Begin OBCS MONITOR field statistics
(PID.TID 0000.0001) // =======================================================
(PID.TID 0000.0001) %MON obc_W_uVel_max               =   7.0330339349901308E-02
(PID.TID 0000.0001) %MON obc_W_uVel_min               =  -1.2529555313121223E-02
(PID.TID 0000.0001) %MON obc_W_uVel_mean              =   2.2512043378252779E-02
(PID.TID 0000.0001) %MON obc_W_uVel_sd                =   2.5884347187124308E-02
(PID.TID 0000.0001) %MON obc_W_uVel_Int               =   4.7346263828587558E+04
(PID.TID 0000.0001) %MON obc_N_vVel_max               =   1.8571503468549966E-01
(PID.TID 0000.0001) %MON obc_N_vVel_min               =  -2.5383893785173772E-01
(PID.TID 0000.0001) %MON obc_N_vVel_mean              =   1.5196918494238326E-03
(PID.TID 0000.0001) %MON obc_N_vVel_sd                =   8.5437537050352882E-02
(PID.TID 0000.0001) %MON obc_N_vVel_Int               =   4.7676542931688600E+04
(PID.TID 0000.0001) // =======================================================
(PID.TID 0000.0001) // End OBCS MONITOR field statistics
(PID.TID 0000.0001) // =======================================================
(PID.TID 0000.0001) // =======================================================
(PID.TID 0000.0001) // Begin MONITOR SEAICE statistics
(PID.TID 0000.0001) // =======================================================
(PID.TID 0000.0001) %MON seaice_tsnumber              =                188389
(PID.TID 0000.0001) %MON seaice_time_sec              =   2.2606680000000000E+08
(PID.TID 0000.0001) %MON seaice_uice_max              =   6.4415134665266505E-01
(PID.TID 0000.0001) %MON seaice_uice_min              =  -2.1131093163474396E-01
(PID.TID 0000.0001) %MON seaice_uice_mean             =   1.7131151694574681E-01
(PID.TID 0000.0001) %MON seaice_uice_sd               =   1.3349534496558474E-01
(PID.TID 0000.0001) %MON seaice_uice_del2             =   2.8219901075431002E-03
(PID.TID 0000.0001) %MON seaice_vice_max              =   4.6074413732946007E-01
(PID.TID 0000.0001) %MON seaice_vice_min              =  -6.3172841970383542E-01
(PID.TID 0000.0001) %MON seaice_vice_mean             =  -8.2302886540192147E-02
(PID.TID 0000.0001) %MON seaice_vice_sd               =   1.5043649112773211E-01
(PID.TID 0000.0001) %MON seaice_vice_del2             =   2.9949529773416663E-03
(PID.TID 0000.0001) %MON seaice_area_max              =   1.0000000000000000E+00
(PID.TID 0000.0001) %MON seaice_area_min              =   0.0000000000000000E+00
(PID.TID 0000.0001) %MON seaice_area_mean             =   2.2608097940793681E-01
(PID.TID 0000.0001) %MON seaice_area_sd               =   3.8533373093976725E-01
(PID.TID 0000.0001) %MON seaice_area_del2             =   4.5273301953971399E-03
(PID.TID 0000.0001) %MON seaice_heff_max              =   1.0116092809102988E+00
(PID.TID 0000.0001) %MON seaice_heff_min              =   0.0000000000000000E+00
(PID.TID 0000.0001) %MON seaice_heff_mean             =   1.2505853689972779E-01
(PID.TID 0000.0001) %MON seaice_heff_sd               =   2.4321137331424672E-01
(PID.TID 0000.0001) %MON seaice_heff_del2             =   2.2523737676890376E-03
(PID.TID 0000.0001) %MON seaice_hsnow_max             =   2.7600611088499893E-01
(PID.TID 0000.0001) %MON seaice_hsnow_min             =   0.0000000000000000E+00
(PID.TID 0000.0001) %MON seaice_hsnow_mean            =   3.0811212659327899E-02
(PID.TID 0000.0001) %MON seaice_hsnow_sd              =   6.4274902326253686E-02
(PID.TID 0000.0001) %MON seaice_hsnow_del2            =   3.7970010274156977E-04
(PID.TID 0000.0001) // =======================================================
(PID.TID 0000.0001) // End MONITOR SEAICE statistics
(PID.TID 0000.0001) // =======================================================
(PID.TID 0000.0001) // =======================================================
(PID.TID 0000.0001) // Begin MONITOR ptracer field statistics
(PID.TID 0000.0001) // =======================================================
(PID.TID 0000.0001) %MON trcstat_ptracer01_max        =   3.5263116042242498E-02
(PID.TID 0000.0001) %MON trcstat_ptracer01_min        =  -1.0062347988338900E-02
(PID.TID 0000.0001) %MON trcstat_ptracer01_mean       =   1.4413921044566774E-03
(PID.TID 0000.0001) %MON trcstat_ptracer01_sd         =   2.0260482799936514E-03
(PID.TID 0000.0001) %MON trcstat_ptracer01_del2       =   3.0984034300604040E+00
(PID.TID 0000.0001) %MON trcstat_ptracer02_max        =   2.4305137574817978E-01
(PID.TID 0000.0001) %MON trcstat_ptracer02_min        =   2.2576792335561259E-07
(PID.TID 0000.0001) %MON trcstat_ptracer02_mean       =   1.3449360451004288E-02
(PID.TID 0000.0001) %MON trcstat_ptracer02_sd         =   1.7619957002200360E-02
(PID.TID 0000.0001) %MON trcstat_ptracer02_del2       =   8.4223043674265031E-04
(PID.TID 0000.0001) %MON trcstat_ptracer03_max        =   2.3339676616547758E+00
(PID.TID 0000.0001) %MON trcstat_ptracer03_min        =   3.0205736118212551E-05
(PID.TID 0000.0001) %MON trcstat_ptracer03_mean       =   1.5995991370908111E-01
(PID.TID 0000.0001) %MON trcstat_ptracer03_sd         =   1.8964183763449968E-01
(PID.TID 0000.0001) %MON trcstat_ptracer03_del2       =   7.1034465798955999E-04
(PID.TID 0000.0001) %MON trcstat_ptracer04_max        =   4.4160932396185650E+01
(PID.TID 0000.0001) %MON trcstat_ptracer04_min        =   1.4930485379833847E-02
(PID.TID 0000.0001) %MON trcstat_ptracer04_mean       =   4.5817307025491933E+00
(PID.TID 0000.0001) %MON trcstat_ptracer04_sd         =   6.6983683840918697E+00
(PID.TID 0000.0001) %MON trcstat_ptracer04_del2       =   1.2511092525398886E-02
(PID.TID 0000.0001) %MON trcstat_ptracer05_max        =   4.3206435661073481E+00
(PID.TID 0000.0001) %MON trcstat_ptracer05_min        =   3.7999557892318063E-02
(PID.TID 0000.0001) %MON trcstat_ptracer05_mean       =   5.9105015251332993E-01
(PID.TID 0000.0001) %MON trcstat_ptracer05_sd         =   5.1754461481944114E-01
(PID.TID 0000.0001) %MON trcstat_ptracer05_del2       =   8.6367307490185915E-04
(PID.TID 0000.0001) %MON trcstat_ptracer06_max        =   1.5669735846794850E+02
(PID.TID 0000.0001) %MON trcstat_ptracer06_min        =   6.2855933577157422E-02
(PID.TID 0000.0001) %MON trcstat_ptracer06_mean       =   1.4711766267786714E+01
(PID.TID 0000.0001) %MON trcstat_ptracer06_sd         =   1.7084679772030967E+01
(PID.TID 0000.0001) %MON trcstat_ptracer06_del2       =   2.7914442765352682E-02
(PID.TID 0000.0001) %MON trcstat_ptracer07_max        =   1.3876604593125775E-03
(PID.TID 0000.0001) %MON trcstat_ptracer07_min        =   5.8883013936989858E-04
(PID.TID 0000.0001) %MON trcstat_ptracer07_mean       =   1.0854240990414384E-03
(PID.TID 0000.0001) %MON trcstat_ptracer07_sd         =   1.4542937929223692E-04
(PID.TID 0000.0001) %MON trcstat_ptracer07_del2       =   4.5504793238488426E-07
(PID.TID 0000.0001) %MON trcstat_ptracer08_max        =   3.3993280949383561E+01
(PID.TID 0000.0001) %MON trcstat_ptracer08_min        =   1.0007207232027082E-05
(PID.TID 0000.0001) %MON trcstat_ptracer08_mean       =   7.0074332387406857E+00
(PID.TID 0000.0001) %MON trcstat_ptracer08_sd         =   6.8284818369253895E+00
(PID.TID 0000.0001) %MON trcstat_ptracer08_del2       =   3.0066264774003790E-02
(PID.TID 0000.0001) %MON trcstat_ptracer09_max        =   4.5324374599178077E+00
(PID.TID 0000.0001) %MON trcstat_ptracer09_min        =   1.3342942976036108E-06
(PID.TID 0000.0001) %MON trcstat_ptracer09_mean       =   9.3432443183209146E-01
(PID.TID 0000.0001) %MON trcstat_ptracer09_sd         =   9.1046424492338451E-01
(PID.TID 0000.0001) %MON trcstat_ptracer09_del2       =   2.3531073524891474E-03
(PID.TID 0000.0001) %MON trcstat_ptracer10_max        =   2.8327734124486298E-01
(PID.TID 0000.0001) %MON trcstat_ptracer10_min        =   8.3393393600225672E-08
(PID.TID 0000.0001) %MON trcstat_ptracer10_mean       =   5.8395276989505716E-02
(PID.TID 0000.0001) %MON trcstat_ptracer10_sd         =   5.6904015307711532E-02
(PID.TID 0000.0001) %MON trcstat_ptracer10_del2       =   1.4706920953057171E-04
(PID.TID 0000.0001) %MON trcstat_ptracer11_max        =   2.8327734124486208E-04
(PID.TID 0000.0001) %MON trcstat_ptracer11_min        =   8.3393393600228215E-11
(PID.TID 0000.0001) %MON trcstat_ptracer11_mean       =   5.8395276977743610E-05
(PID.TID 0000.0001) %MON trcstat_ptracer11_sd         =   5.6904015362353285E-05
(PID.TID 0000.0001) %MON trcstat_ptracer11_del2       =   1.4706920994335446E-07
(PID.TID 0000.0001) %MON trcstat_ptracer12_max        =   1.2088107958610475E+02
(PID.TID 0000.0001) %MON trcstat_ptracer12_min        =   4.0535903331899654E-07
(PID.TID 0000.0001) %MON trcstat_ptracer12_mean       =   2.4532585519784686E+00
(PID.TID 0000.0001) %MON trcstat_ptracer12_sd         =   5.8853061958151738E+00
(PID.TID 0000.0001) %MON trcstat_ptracer12_del2       =   3.8683785833613878E-02
(PID.TID 0000.0001) %MON trcstat_ptracer13_max        =   1.6117477278147298E+01
(PID.TID 0000.0001) %MON trcstat_ptracer13_min        =   5.4047871109199538E-08
(PID.TID 0000.0001) %MON trcstat_ptracer13_mean       =   3.2710114026379578E-01
(PID.TID 0000.0001) %MON trcstat_ptracer13_sd         =   7.8470749277535601E-01
(PID.TID 0000.0001) %MON trcstat_ptracer13_del2       =   4.7559889475066982E-03
(PID.TID 0000.0001) %MON trcstat_ptracer14_max        =   1.0073423298842061E+00
(PID.TID 0000.0001) %MON trcstat_ptracer14_min        =   3.3779919443249711E-09
(PID.TID 0000.0001) %MON trcstat_ptracer14_mean       =   2.0443821266487236E-02
(PID.TID 0000.0001) %MON trcstat_ptracer14_sd         =   4.9044218298459751E-02
(PID.TID 0000.0001) %MON trcstat_ptracer14_del2       =   2.9724930921916863E-04
(PID.TID 0000.0001) %MON trcstat_ptracer15_max        =   3.0560054554548350E+02
(PID.TID 0000.0001) %MON trcstat_ptracer15_min        =   9.1999717505078648E-08
(PID.TID 0000.0001) %MON trcstat_ptracer15_mean       =   2.2925732385008906E+00
(PID.TID 0000.0001) %MON trcstat_ptracer15_sd         =   1.2520156424597332E+01
(PID.TID 0000.0001) %MON trcstat_ptracer15_del2       =   5.3787655671519850E-02
(PID.TID 0000.0001) %MON trcstat_ptracer16_max        =   1.0073423298842066E-03
(PID.TID 0000.0001) %MON trcstat_ptracer16_min        =   3.3779919443249696E-12
(PID.TID 0000.0001) %MON trcstat_ptracer16_mean       =   2.0443821271097458E-05
(PID.TID 0000.0001) %MON trcstat_ptracer16_sd         =   4.9044218295418126E-05
(PID.TID 0000.0001) %MON trcstat_ptracer16_del2       =   2.9724930944667719E-07
(PID.TID 0000.0001) %MON trcstat_ptracer17_max        =   0.0000000000000000E+00
(PID.TID 0000.0001) %MON trcstat_ptracer17_min        =   0.0000000000000000E+00
(PID.TID 0000.0001) %MON trcstat_ptracer17_mean       =   0.0000000000000000E+00
(PID.TID 0000.0001) %MON trcstat_ptracer17_sd         =   0.0000000000000000E+00
(PID.TID 0000.0001) %MON trcstat_ptracer17_del2       =   0.0000000000000000E+00
(PID.TID 0000.0001) %MON trcstat_ptracer18_max        =   6.7189927554266119E-03
(PID.TID 0000.0001) %MON trcstat_ptracer18_min        =  -2.5282282671676246E-17
(PID.TID 0000.0001) %MON trcstat_ptracer18_mean       =   1.4991810633688816E-05
(PID.TID 0000.0001) %MON trcstat_ptracer18_sd         =   2.1629000169519650E-04
(PID.TID 0000.0001) %MON trcstat_ptracer18_del2       =   5.4281691791093918E-06
(PID.TID 0000.0001) %MON trcstat_ptracer19_max        =   6.3136695105262333E-02
(PID.TID 0000.0001) %MON trcstat_ptracer19_min        =  -2.7122201104991904E-22
(PID.TID 0000.0001) %MON trcstat_ptracer19_mean       =   8.8266173203557579E-04
(PID.TID 0000.0001) %MON trcstat_ptracer19_sd         =   4.8055875417031147E-03
(PID.TID 0000.0001) %MON trcstat_ptracer19_del2       =   2.2866043278177504E-05
(PID.TID 0000.0001) %MON trcstat_ptracer20_max        =   6.7189934905082923E-03
(PID.TID 0000.0001) %MON trcstat_ptracer20_min        =   6.8476118242632695E-49
(PID.TID 0000.0001) %MON trcstat_ptracer20_mean       =   1.5007561267618555E-05
(PID.TID 0000.0001) %MON trcstat_ptracer20_sd         =   2.1628891176796094E-04
(PID.TID 0000.0001) %MON trcstat_ptracer20_del2       =   5.4281703881184293E-06
(PID.TID 0000.0001) %MON trcstat_ptracer21_max        =   1.7062639864823922E-02
(PID.TID 0000.0001) %MON trcstat_ptracer21_min        =   9.6783664022408199E-32
(PID.TID 0000.0001) %MON trcstat_ptracer21_mean       =   3.2266365339639883E-04
(PID.TID 0000.0001) %MON trcstat_ptracer21_sd         =   1.2941353391296481E-03
(PID.TID 0000.0001) %MON trcstat_ptracer21_del2       =   1.2579469191697851E-05
(PID.TID 0000.0001) %MON trcstat_ptracer22_max        =   6.3177006426945190E-03
(PID.TID 0000.0001) %MON trcstat_ptracer22_min        =  -3.2253570752905211E-15
(PID.TID 0000.0001) %MON trcstat_ptracer22_mean       =   1.2783170419325840E-05
(PID.TID 0000.0001) %MON trcstat_ptracer22_sd         =   1.9976219596882974E-04
(PID.TID 0000.0001) %MON trcstat_ptracer22_del2       =   5.5802123633087592E-06
(PID.TID 0000.0001) %MON trcstat_ptracer23_max        =   1.1605519988558961E+00
(PID.TID 0000.0001) %MON trcstat_ptracer23_min        =   1.5474118423359018E-17
(PID.TID 0000.0001) %MON trcstat_ptracer23_mean       =   2.9566584474399808E-02
(PID.TID 0000.0001) %MON trcstat_ptracer23_sd         =   8.1287419543052880E-02
(PID.TID 0000.0001) %MON trcstat_ptracer23_del2       =   6.3989445978264751E-04
(PID.TID 0000.0001) %MON trcstat_ptracer24_max        =   1.1093201804056530E+01
(PID.TID 0000.0001) %MON trcstat_ptracer24_min        =   8.0446875722741762E-22
(PID.TID 0000.0001) %MON trcstat_ptracer24_mean       =   1.9437092887925025E-01
(PID.TID 0000.0001) %MON trcstat_ptracer24_sd         =   7.0655518728443634E-01
(PID.TID 0000.0001) %MON trcstat_ptracer24_del2       =   5.5757148761814857E-03
(PID.TID 0000.0001) %MON trcstat_ptracer25_max        =   1.2704163159893259E-01
(PID.TID 0000.0001) %MON trcstat_ptracer25_min        =   1.1999999999984850E-48
(PID.TID 0000.0001) %MON trcstat_ptracer25_mean       =   3.6027369999586226E-04
(PID.TID 0000.0001) %MON trcstat_ptracer25_sd         =   2.9109900266056786E-03
(PID.TID 0000.0001) %MON trcstat_ptracer25_del2       =   2.0505502705799874E-05
(PID.TID 0000.0001) %MON trcstat_ptracer26_max        =   1.5657545562374311E+00
(PID.TID 0000.0001) %MON trcstat_ptracer26_min        =   1.4676807648603599E-27
(PID.TID 0000.0001) %MON trcstat_ptracer26_mean       =   1.6724708891073411E-02
(PID.TID 0000.0001) %MON trcstat_ptracer26_sd         =   8.6768114024579249E-02
(PID.TID 0000.0001) %MON trcstat_ptracer26_del2       =   8.7494139571622288E-04
(PID.TID 0000.0001) %MON trcstat_ptracer27_max        =   6.5401729209973334E-03
(PID.TID 0000.0001) %MON trcstat_ptracer27_min        =   1.5108633402143114E-12
(PID.TID 0000.0001) %MON trcstat_ptracer27_mean       =   1.4143359779782533E-05
(PID.TID 0000.0001) %MON trcstat_ptracer27_sd         =   2.1163969837970998E-04
(PID.TID 0000.0001) %MON trcstat_ptracer27_del2       =   5.4946254811276583E-06
(PID.TID 0000.0001) %MON trcstat_ptracer28_max        =   6.4922512254954557E-03
(PID.TID 0000.0001) %MON trcstat_ptracer28_min        =  -6.5388706433223866E-17
(PID.TID 0000.0001) %MON trcstat_ptracer28_mean       =   1.3905191721524249E-05
(PID.TID 0000.0001) %MON trcstat_ptracer28_sd         =   2.1037889386439230E-04
(PID.TID 0000.0001) %MON trcstat_ptracer28_del2       =   5.4486517153601706E-06
(PID.TID 0000.0001) %MON trcstat_ptracer29_max        =   6.2938210942687905E-03
(PID.TID 0000.0001) %MON trcstat_ptracer29_min        =  -2.4746039600384056E-19
(PID.TID 0000.0001) %MON trcstat_ptracer29_mean       =   1.2747586925166956E-05
(PID.TID 0000.0001) %MON trcstat_ptracer29_sd         =   1.9911899112098292E-04
(PID.TID 0000.0001) %MON trcstat_ptracer29_del2       =   5.5494392462731868E-06
(PID.TID 0000.0001) %MON trcstat_ptracer30_max        =   6.7175041844962776E-03
(PID.TID 0000.0001) %MON trcstat_ptracer30_min        =   6.8252847634802470E-49
(PID.TID 0000.0001) %MON trcstat_ptracer30_mean       =   1.4991889065455736E-05
(PID.TID 0000.0001) %MON trcstat_ptracer30_sd         =   2.1631786633664109E-04
(PID.TID 0000.0001) %MON trcstat_ptracer30_del2       =   5.4266512409747954E-06
(PID.TID 0000.0001) %MON trcstat_ptracer31_max        =   6.3211319393698413E-03
(PID.TID 0000.0001) %MON trcstat_ptracer31_min        =  -3.1191582308875485E-15
(PID.TID 0000.0001) %MON trcstat_ptracer31_mean       =   1.2784286335856315E-05
(PID.TID 0000.0001) %MON trcstat_ptracer31_sd         =   1.9972267964193531E-04
(PID.TID 0000.0001) %MON trcstat_ptracer31_del2       =   5.5723282807357007E-06
(PID.TID 0000.0001) %MON trcstat_ptracer32_max        =   6.7175041830996709E-03
(PID.TID 0000.0001) %MON trcstat_ptracer32_min        =  -7.0632941367040027E-17
(PID.TID 0000.0001) %MON trcstat_ptracer32_mean       =   1.4986621349329336E-05
(PID.TID 0000.0001) %MON trcstat_ptracer32_sd         =   2.1623342321374313E-04
(PID.TID 0000.0001) %MON trcstat_ptracer32_del2       =   5.4278676889347126E-06
(PID.TID 0000.0001) %MON trcstat_ptracer33_max        =   6.7707842310285263E-03
(PID.TID 0000.0001) %MON trcstat_ptracer33_min        =  -4.6581720585940420E-34
(PID.TID 0000.0001) %MON trcstat_ptracer33_mean       =   1.5415497453753192E-05
(PID.TID 0000.0001) %MON trcstat_ptracer33_sd         =   2.1760853517563140E-04
(PID.TID 0000.0001) %MON trcstat_ptracer33_del2       =   5.4747876009709517E-06
(PID.TID 0000.0001) %MON trcstat_ptracer34_max        =   8.5316354984819546E-03
(PID.TID 0000.0001) %MON trcstat_ptracer34_min        =   1.1859689424733798E-48
(PID.TID 0000.0001) %MON trcstat_ptracer34_mean       =   2.1115210836070635E-05
(PID.TID 0000.0001) %MON trcstat_ptracer34_sd         =   2.7187330063969733E-04
(PID.TID 0000.0001) %MON trcstat_ptracer34_del2       =   5.2016582434646382E-06
(PID.TID 0000.0001) %MON trcstat_ptracer35_max        =   3.4012468918246647E-01
(PID.TID 0000.0001) %MON trcstat_ptracer35_min        =   8.9061263825577390E-31
(PID.TID 0000.0001) %MON trcstat_ptracer35_mean       =   2.2503024385933834E-03
(PID.TID 0000.0001) %MON trcstat_ptracer35_sd         =   1.6304641729088253E-02
(PID.TID 0000.0001) %MON trcstat_ptracer35_del2       =   1.2222416812875415E-04
(PID.TID 0000.0001) %MON trcstat_ptracer36_max        =   6.7175041831022044E-03
(PID.TID 0000.0001) %MON trcstat_ptracer36_min        =  -8.5063446367294955E-17
(PID.TID 0000.0001) %MON trcstat_ptracer36_mean       =   1.4986621146958230E-05
(PID.TID 0000.0001) %MON trcstat_ptracer36_sd         =   2.1623342322872125E-04
(PID.TID 0000.0001) %MON trcstat_ptracer36_del2       =   5.4278676889118511E-06
(PID.TID 0000.0001) %MON trcstat_ptracer37_max        =   6.7208019339916082E-03
(PID.TID 0000.0001) %MON trcstat_ptracer37_min        =  -5.8380408965737601E-16
(PID.TID 0000.0001) %MON trcstat_ptracer37_mean       =   1.4998036363590842E-05
(PID.TID 0000.0001) %MON trcstat_ptracer37_sd         =   2.1635186020770977E-04
(PID.TID 0000.0001) %MON trcstat_ptracer37_del2       =   5.4269104930866501E-06
(PID.TID 0000.0001) %MON trcstat_ptracer38_max        =   6.3210443522486491E-03
(PID.TID 0000.0001) %MON trcstat_ptracer38_min        =   8.9335791754773646E-15
(PID.TID 0000.0001) %MON trcstat_ptracer38_mean       =   1.2889340839306243E-05
(PID.TID 0000.0001) %MON trcstat_ptracer38_sd         =   1.9955053135648829E-04
(PID.TID 0000.0001) %MON trcstat_ptracer38_del2       =   5.5796366616580504E-06
(PID.TID 0000.0001) %MON trcstat_ptracer39_max        =   1.2470635938265216E-01
(PID.TID 0000.0001) %MON trcstat_ptracer39_min        =   6.5174633372699431E-12
(PID.TID 0000.0001) %MON trcstat_ptracer39_mean       =   2.7578443577465760E-03
(PID.TID 0000.0001) %MON trcstat_ptracer39_sd         =   9.8974948721007767E-03
(PID.TID 0000.0001) %MON trcstat_ptracer39_del2       =   7.7604364935301431E-05
(PID.TID 0000.0001) %MON trcstat_ptracer40_max        =   6.7175042627534891E-03
(PID.TID 0000.0001) %MON trcstat_ptracer40_min        =  -1.6270224190469609E-29
(PID.TID 0000.0001) %MON trcstat_ptracer40_mean       =   1.4988916874219390E-05
(PID.TID 0000.0001) %MON trcstat_ptracer40_sd         =   2.1623326496703077E-04
(PID.TID 0000.0001) %MON trcstat_ptracer40_del2       =   5.4278677815691291E-06
(PID.TID 0000.0001) %MON trcstat_ptracer41_max        =   1.2652429105557377E-02
(PID.TID 0000.0001) %MON trcstat_ptracer41_min        =   1.6924005715576719E-48
(PID.TID 0000.0001) %MON trcstat_ptracer41_mean       =   4.4471238472389813E-05
(PID.TID 0000.0001) %MON trcstat_ptracer41_sd         =   4.7232924144343524E-04
(PID.TID 0000.0001) %MON trcstat_ptracer41_del2       =   5.5129507942734557E-06
(PID.TID 0000.0001) %MON trcstat_ptracer42_max        =   6.5162110196227254E-03
(PID.TID 0000.0001) %MON trcstat_ptracer42_min        =  -7.4257600038114873E-19
(PID.TID 0000.0001) %MON trcstat_ptracer42_mean       =   1.3946001235898148E-05
(PID.TID 0000.0001) %MON trcstat_ptracer42_sd         =   2.1106514554569206E-04
(PID.TID 0000.0001) %MON trcstat_ptracer42_del2       =   5.4761942175149341E-06
(PID.TID 0000.0001) %MON trcstat_ptracer43_max        =   6.7189927539836212E-03
(PID.TID 0000.0001) %MON trcstat_ptracer43_min        =  -6.2156259655317388E-17
(PID.TID 0000.0001) %MON trcstat_ptracer43_mean       =   1.4991755602383611E-05
(PID.TID 0000.0001) %MON trcstat_ptracer43_sd         =   2.1629000558419904E-04
(PID.TID 0000.0001) %MON trcstat_ptracer43_del2       =   5.4281691728794882E-06
(PID.TID 0000.0001) %MON trcstat_ptracer44_max        =   6.7189927544548831E-03
(PID.TID 0000.0001) %MON trcstat_ptracer44_min        =  -9.3088098008245787E-33
(PID.TID 0000.0001) %MON trcstat_ptracer44_mean       =   1.4991809360944468E-05
(PID.TID 0000.0001) %MON trcstat_ptracer44_sd         =   2.1629000179398247E-04
(PID.TID 0000.0001) %MON trcstat_ptracer44_del2       =   5.4281691758247819E-06
(PID.TID 0000.0001) %MON trcstat_ptracer45_max        =   6.7190631601445946E-03
(PID.TID 0000.0001) %MON trcstat_ptracer45_min        =   9.3916446942924932E-49
(PID.TID 0000.0001) %MON trcstat_ptracer45_mean       =   1.6607599364072183E-05
(PID.TID 0000.0001) %MON trcstat_ptracer45_sd         =   2.1626481315763251E-04
(PID.TID 0000.0001) %MON trcstat_ptracer45_del2       =   5.4284761933177688E-06
(PID.TID 0000.0001) %MON trcstat_ptracer46_max        =   6.7892941671029291E-03
(PID.TID 0000.0001) %MON trcstat_ptracer46_min        =   1.1527380052243065E-48
(PID.TID 0000.0001) %MON trcstat_ptracer46_mean       =   1.9753795516170006E-05
(PID.TID 0000.0001) %MON trcstat_ptracer46_sd         =   2.7140378525366773E-04
(PID.TID 0000.0001) %MON trcstat_ptracer46_del2       =   4.9224090259929078E-06
(PID.TID 0000.0001) %MON trcstat_ptracer47_max        =   6.7230483336648507E-03
(PID.TID 0000.0001) %MON trcstat_ptracer47_min        =   1.2000000923403790E-48
(PID.TID 0000.0001) %MON trcstat_ptracer47_mean       =   1.6819999269141032E-05
(PID.TID 0000.0001) %MON trcstat_ptracer47_sd         =   2.1661364486130153E-04
(PID.TID 0000.0001) %MON trcstat_ptracer47_del2       =   5.4293489267975616E-06
(PID.TID 0000.0001) %MON trcstat_ptracer48_max        =   6.9083475795119961E-03
(PID.TID 0000.0001) %MON trcstat_ptracer48_min        =   5.3994701480287688E-48
(PID.TID 0000.0001) %MON trcstat_ptracer48_mean       =   1.7529480784616510E-05
(PID.TID 0000.0001) %MON trcstat_ptracer48_sd         =   2.5622609211990824E-04
(PID.TID 0000.0001) %MON trcstat_ptracer48_del2       =   5.0326396437117887E-06
(PID.TID 0000.0001) %MON trcstat_ptracer49_max        =   6.2938210944940539E-03
(PID.TID 0000.0001) %MON trcstat_ptracer49_min        =  -3.0915586238273519E-15
(PID.TID 0000.0001) %MON trcstat_ptracer49_mean       =   1.2747586905714431E-05
(PID.TID 0000.0001) %MON trcstat_ptracer49_sd         =   1.9911899113117456E-04
(PID.TID 0000.0001) %MON trcstat_ptracer49_del2       =   5.5494392462027933E-06
(PID.TID 0000.0001) %MON trcstat_ptracer50_max        =   6.7189927540973445E-03
(PID.TID 0000.0001) %MON trcstat_ptracer50_min        =  -5.1039529408168133E-16
(PID.TID 0000.0001) %MON trcstat_ptracer50_mean       =   1.4991753436128029E-05
(PID.TID 0000.0001) %MON trcstat_ptracer50_sd         =   2.1629000574914254E-04
(PID.TID 0000.0001) %MON trcstat_ptracer50_del2       =   5.4281691725824956E-06
(PID.TID 0000.0001) %MON trcstat_ptracer51_max        =   6.2938210944697755E-03
(PID.TID 0000.0001) %MON trcstat_ptracer51_min        =  -2.5601396560150099E-21
(PID.TID 0000.0001) %MON trcstat_ptracer51_mean       =   1.2747586943656941E-05
(PID.TID 0000.0001) %MON trcstat_ptracer51_sd         =   1.9911899112836300E-04
(PID.TID 0000.0001) %MON trcstat_ptracer51_del2       =   5.5494392462043205E-06
(PID.TID 0000.0001) %MON trcstat_ptracer52_max        =   3.5154374396194132E+00
(PID.TID 0000.0001) %MON trcstat_ptracer52_min        =   5.3476890937155482E-39
(PID.TID 0000.0001) %MON trcstat_ptracer52_mean       =   3.9903237293870845E-02
(PID.TID 0000.0001) %MON trcstat_ptracer52_sd         =   2.2144048510707198E-01
(PID.TID 0000.0001) %MON trcstat_ptracer52_del2       =   1.1337183728945032E-03
(PID.TID 0000.0001) %MON trcstat_ptracer53_max        =   6.4077004068517032E-02
(PID.TID 0000.0001) %MON trcstat_ptracer53_min        =   1.9529038826386849E-42
(PID.TID 0000.0001) %MON trcstat_ptracer53_mean       =   1.1594030550827323E-04
(PID.TID 0000.0001) %MON trcstat_ptracer53_sd         =   1.1571110931556468E-03
(PID.TID 0000.0001) %MON trcstat_ptracer53_del2       =   1.0755520068152498E-05
(PID.TID 0000.0001) %MON trcstat_ptracer54_max        =   1.2812851643781563E-02
(PID.TID 0000.0001) %MON trcstat_ptracer54_min        =   1.1908531043249625E-31
(PID.TID 0000.0001) %MON trcstat_ptracer54_mean       =   2.6199415903730161E-05
(PID.TID 0000.0001) %MON trcstat_ptracer54_sd         =   3.9584098075257562E-04
(PID.TID 0000.0001) %MON trcstat_ptracer54_del2       =   5.2996527857226423E-06
(PID.TID 0000.0001) %MON trcstat_ptracer55_max        =   9.3977729769610281E-03
(PID.TID 0000.0001) %MON trcstat_ptracer55_min        =   1.1755370581067144E-48
(PID.TID 0000.0001) %MON trcstat_ptracer55_mean       =   2.4554626052448302E-05
(PID.TID 0000.0001) %MON trcstat_ptracer55_sd         =   3.0732043739078893E-04
(PID.TID 0000.0001) %MON trcstat_ptracer55_del2       =   4.9940847561988024E-06
(PID.TID 0000.0001) %MON trcstat_ptracer56_max        =   9.2443165618386492E-03
(PID.TID 0000.0001) %MON trcstat_ptracer56_min        =  -7.4390681946996277E-30
(PID.TID 0000.0001) %MON trcstat_ptracer56_mean       =   2.4833194290819294E-05
(PID.TID 0000.0001) %MON trcstat_ptracer56_sd         =   3.5314031694949421E-04
(PID.TID 0000.0001) %MON trcstat_ptracer56_del2       =   4.7504588945441338E-06
(PID.TID 0000.0001) %MON trcstat_ptracer57_max        =   8.2458374141866631E-03
(PID.TID 0000.0001) %MON trcstat_ptracer57_min        =   7.9740622088427037E-28
(PID.TID 0000.0001) %MON trcstat_ptracer57_mean       =   1.8217101216715339E-05
(PID.TID 0000.0001) %MON trcstat_ptracer57_sd         =   2.8576967405335969E-04
(PID.TID 0000.0001) %MON trcstat_ptracer57_del2       =   4.9583972602730526E-06
(PID.TID 0000.0001) %MON trcstat_ptracer58_max        =   8.3067872437301016E-03
(PID.TID 0000.0001) %MON trcstat_ptracer58_min        =   1.1913647637236880E-48
(PID.TID 0000.0001) %MON trcstat_ptracer58_mean       =   2.0461509822440594E-05
(PID.TID 0000.0001) %MON trcstat_ptracer58_sd         =   2.6427954258330025E-04
(PID.TID 0000.0001) %MON trcstat_ptracer58_del2       =   5.2713244326389385E-06
(PID.TID 0000.0001) %MON trcstat_ptracer59_max        =   8.1238426690408028E-03
(PID.TID 0000.0001) %MON trcstat_ptracer59_min        =   1.1495008091230424E-48
(PID.TID 0000.0001) %MON trcstat_ptracer59_mean       =   2.9176953943446835E-05
(PID.TID 0000.0001) %MON trcstat_ptracer59_sd         =   3.5624212123596506E-04
(PID.TID 0000.0001) %MON trcstat_ptracer59_del2       =   4.6239640732143880E-06
(PID.TID 0000.0001) %MON trcstat_ptracer60_max        =   5.5796660504380924E-02
(PID.TID 0000.0001) %MON trcstat_ptracer60_min        =  -2.1475437762912760E-22
(PID.TID 0000.0001) %MON trcstat_ptracer60_mean       =   2.1916201282615226E-04
(PID.TID 0000.0001) %MON trcstat_ptracer60_sd         =   2.0546233674633109E-03
(PID.TID 0000.0001) %MON trcstat_ptracer60_del2       =   2.7387354503018141E-05
(PID.TID 0000.0001) %MON trcstat_ptracer61_max        =   6.4939998805075205E-03
(PID.TID 0000.0001) %MON trcstat_ptracer61_min        =   4.9411964632913892E-16
(PID.TID 0000.0001) %MON trcstat_ptracer61_mean       =   1.3911404286579372E-05
(PID.TID 0000.0001) %MON trcstat_ptracer61_sd         =   2.1043513253152238E-04
(PID.TID 0000.0001) %MON trcstat_ptracer61_del2       =   5.4473914122232486E-06
(PID.TID 0000.0001) %MON trcstat_ptracer62_max        =   6.7208019338748475E-03
(PID.TID 0000.0001) %MON trcstat_ptracer62_min        =  -6.1481025941139721E-17
(PID.TID 0000.0001) %MON trcstat_ptracer62_mean       =   1.4998039444664524E-05
(PID.TID 0000.0001) %MON trcstat_ptracer62_sd         =   2.1635185997548019E-04
(PID.TID 0000.0001) %MON trcstat_ptracer62_del2       =   5.4269104934960008E-06
(PID.TID 0000.0001) %MON trcstat_ptracer63_max        =   6.2938210944413851E-03
(PID.TID 0000.0001) %MON trcstat_ptracer63_min        =  -3.1688948917438106E-15
(PID.TID 0000.0001) %MON trcstat_ptracer63_mean       =   1.2747929858573490E-05
(PID.TID 0000.0001) %MON trcstat_ptracer63_sd         =   1.9912432816536859E-04
(PID.TID 0000.0001) %MON trcstat_ptracer63_del2       =   5.5493169365333563E-06
(PID.TID 0000.0001) %MON trcstat_ptracer64_max        =   6.3205857558934946E-03
(PID.TID 0000.0001) %MON trcstat_ptracer64_min        =  -7.6698864465409582E-23
(PID.TID 0000.0001) %MON trcstat_ptracer64_mean       =   1.2804867442841708E-05
(PID.TID 0000.0001) %MON trcstat_ptracer64_sd         =   2.0004993609000355E-04
(PID.TID 0000.0001) %MON trcstat_ptracer64_del2       =   5.5688499791324371E-06
(PID.TID 0000.0001) %MON trcstat_ptracer65_max        =   6.7208019337426086E-03
(PID.TID 0000.0001) %MON trcstat_ptracer65_min        =  -7.0363779823151999E-17
(PID.TID 0000.0001) %MON trcstat_ptracer65_mean       =   1.4998036943767386E-05
(PID.TID 0000.0001) %MON trcstat_ptracer65_sd         =   2.1635186014586880E-04
(PID.TID 0000.0001) %MON trcstat_ptracer65_del2       =   5.4269104932722613E-06
(PID.TID 0000.0001) %MON trcstat_ptracer66_max        =   6.7189927541075542E-03
(PID.TID 0000.0001) %MON trcstat_ptracer66_min        =  -3.2070499543220033E-16
(PID.TID 0000.0001) %MON trcstat_ptracer66_mean       =   1.4991753438092976E-05
(PID.TID 0000.0001) %MON trcstat_ptracer66_sd         =   2.1629000574974926E-04
(PID.TID 0000.0001) %MON trcstat_ptracer66_del2       =   5.4281691725797843E-06
(PID.TID 0000.0001) %MON trcstat_ptracer67_max        =   1.3759335289034233E-02
(PID.TID 0000.0001) %MON trcstat_ptracer67_min        =   9.3832617954295020E-29
(PID.TID 0000.0001) %MON trcstat_ptracer67_mean       =   2.9927125248782899E-05
(PID.TID 0000.0001) %MON trcstat_ptracer67_sd         =   4.1911381122881577E-04
(PID.TID 0000.0001) %MON trcstat_ptracer67_del2       =   5.5169875675657072E-06
(PID.TID 0000.0001) %MON trcstat_ptracer68_max        =   6.7257507521484529E-03
(PID.TID 0000.0001) %MON trcstat_ptracer68_min        =   1.1981320775418618E-48
(PID.TID 0000.0001) %MON trcstat_ptracer68_mean       =   1.5002719158006139E-05
(PID.TID 0000.0001) %MON trcstat_ptracer68_sd         =   2.1640896097512255E-04
(PID.TID 0000.0001) %MON trcstat_ptracer68_del2       =   5.4289726873798203E-06
(PID.TID 0000.0001) %MON trcstat_ptracer69_max        =   2.2931231470339619E+00
(PID.TID 0000.0001) %MON trcstat_ptracer69_min        =  -4.6290805446682867E-17
(PID.TID 0000.0001) %MON trcstat_ptracer69_mean       =   7.5169949073162073E-02
(PID.TID 0000.0001) %MON trcstat_ptracer69_sd         =   2.0168885878690795E-01
(PID.TID 0000.0001) %MON trcstat_ptracer69_del2       =   1.2085572149734560E-03
(PID.TID 0000.0001) %MON trcstat_ptracer70_max        =   6.4939993523536986E-03
(PID.TID 0000.0001) %MON trcstat_ptracer70_min        =  -1.6034012013721475E-16
(PID.TID 0000.0001) %MON trcstat_ptracer70_mean       =   1.3910532204437623E-05
(PID.TID 0000.0001) %MON trcstat_ptracer70_sd         =   2.1043514767547111E-04
(PID.TID 0000.0001) %MON trcstat_ptracer70_del2       =   5.4473916513656913E-06
(PID.TID 0000.0001) %MON trcstat_ptracer71_max        =   6.5006706347217353E-03
(PID.TID 0000.0001) %MON trcstat_ptracer71_min        =   5.9725249228790318E-35
(PID.TID 0000.0001) %MON trcstat_ptracer71_mean       =   1.6620040963162417E-05
(PID.TID 0000.0001) %MON trcstat_ptracer71_sd         =   2.1836106495393983E-04
(PID.TID 0000.0001) %MON trcstat_ptracer71_del2       =   5.3417414495480463E-06
(PID.TID 0000.0001) %MON trcstat_ptracer72_max        =   6.2921268539822117E-03
(PID.TID 0000.0001) %MON trcstat_ptracer72_min        =  -2.9404131649948771E-17
(PID.TID 0000.0001) %MON trcstat_ptracer72_mean       =   1.2742903990200085E-05
(PID.TID 0000.0001) %MON trcstat_ptracer72_sd         =   1.9906613815311202E-04
(PID.TID 0000.0001) %MON trcstat_ptracer72_del2       =   5.5506514365692863E-06
(PID.TID 0000.0001) %MON trcstat_ptracer73_max        =   6.2907328642967169E-03
(PID.TID 0000.0001) %MON trcstat_ptracer73_min        =   8.1290901501122110E-27
(PID.TID 0000.0001) %MON trcstat_ptracer73_mean       =   1.2738932840725806E-05
(PID.TID 0000.0001) %MON trcstat_ptracer73_sd         =   1.9901573230802680E-04
(PID.TID 0000.0001) %MON trcstat_ptracer73_del2       =   5.5503385040579412E-06
(PID.TID 0000.0001) %MON trcstat_ptracer74_max        =   6.2938210944156834E-03
(PID.TID 0000.0001) %MON trcstat_ptracer74_min        =  -1.6413035984935741E-15
(PID.TID 0000.0001) %MON trcstat_ptracer74_mean       =   1.2750914279655319E-05
(PID.TID 0000.0001) %MON trcstat_ptracer74_sd         =   1.9918084094972034E-04
(PID.TID 0000.0001) %MON trcstat_ptracer74_del2       =   5.5499926033791800E-06
(PID.TID 0000.0001) %MON trcstat_ptracer75_max        =   1.1513416054356282E+01
(PID.TID 0000.0001) %MON trcstat_ptracer75_min        =   3.9110639789358076E-13
(PID.TID 0000.0001) %MON trcstat_ptracer75_mean       =   8.1402937860469804E-01
(PID.TID 0000.0001) %MON trcstat_ptracer75_sd         =   1.2474594032220645E+00
(PID.TID 0000.0001) %MON trcstat_ptracer75_del2       =   7.5096598378767455E-03
(PID.TID 0000.0001) %MON trcstat_ptracer76_max        =   6.7463746759826061E-03
(PID.TID 0000.0001) %MON trcstat_ptracer76_min        =  -1.7794808355869662E-21
(PID.TID 0000.0001) %MON trcstat_ptracer76_mean       =   1.5035190549958761E-05
(PID.TID 0000.0001) %MON trcstat_ptracer76_sd         =   2.1706183950917447E-04
(PID.TID 0000.0001) %MON trcstat_ptracer76_del2       =   5.4572855081844666E-06
(PID.TID 0000.0001) %MON trcstat_ptracer77_max        =   6.7423731954225621E-03
(PID.TID 0000.0001) %MON trcstat_ptracer77_min        =   1.0473493904885921E-48
(PID.TID 0000.0001) %MON trcstat_ptracer77_mean       =   1.6963780928599896E-05
(PID.TID 0000.0001) %MON trcstat_ptracer77_sd         =   2.4163614555002357E-04
(PID.TID 0000.0001) %MON trcstat_ptracer77_del2       =   5.1453497159581117E-06
(PID.TID 0000.0001) %MON trcstat_ptracer78_max        =   1.7690025757741267E-02
(PID.TID 0000.0001) %MON trcstat_ptracer78_min        =  -1.7449848346828357E-39
(PID.TID 0000.0001) %MON trcstat_ptracer78_mean       =   6.2546059655138502E-05
(PID.TID 0000.0001) %MON trcstat_ptracer78_sd         =   6.2847040809597726E-04
(PID.TID 0000.0001) %MON trcstat_ptracer78_del2       =   5.5017275846884390E-06
(PID.TID 0000.0001) %MON trcstat_ptracer79_max        =   2.5434407940929886E+00
(PID.TID 0000.0001) %MON trcstat_ptracer79_min        =   2.5986012700879488E-33
(PID.TID 0000.0001) %MON trcstat_ptracer79_mean       =   1.6057192160564809E-02
(PID.TID 0000.0001) %MON trcstat_ptracer79_sd         =   1.0060820470646938E-01
(PID.TID 0000.0001) %MON trcstat_ptracer79_del2       =   5.8982176213242350E-04
(PID.TID 0000.0001) %MON trcstat_ptracer80_max        =   2.3236587934764054E-02
(PID.TID 0000.0001) %MON trcstat_ptracer80_min        =  -4.3001544464125006E-26
(PID.TID 0000.0001) %MON trcstat_ptracer80_mean       =   6.4932467739521832E-05
(PID.TID 0000.0001) %MON trcstat_ptracer80_sd         =   7.9523319068092505E-04
(PID.TID 0000.0001) %MON trcstat_ptracer80_del2       =   8.7248110118658897E-06
(PID.TID 0000.0001) %MON trcstat_ptracer81_max        =   6.7678859473246601E-03
(PID.TID 0000.0001) %MON trcstat_ptracer81_min        =   1.0115478822303688E-48
(PID.TID 0000.0001) %MON trcstat_ptracer81_mean       =   1.5114530916357584E-05
(PID.TID 0000.0001) %MON trcstat_ptracer81_sd         =   2.1731616489612326E-04
(PID.TID 0000.0001) %MON trcstat_ptracer81_del2       =   5.4759167654690454E-06
(PID.TID 0000.0001) %MON trcstat_ptracer82_max        =   6.2938210944952673E-03
(PID.TID 0000.0001) %MON trcstat_ptracer82_min        =  -3.0907765388822349E-15
(PID.TID 0000.0001) %MON trcstat_ptracer82_mean       =   1.2747586905727377E-05
(PID.TID 0000.0001) %MON trcstat_ptracer82_sd         =   1.9911899113130778E-04
(PID.TID 0000.0001) %MON trcstat_ptracer82_del2       =   5.5494392462016947E-06
(PID.TID 0000.0001) %MON trcstat_ptracer83_max        =   6.7232843896128944E-03
(PID.TID 0000.0001) %MON trcstat_ptracer83_min        =  -2.2534293845650168E-16
(PID.TID 0000.0001) %MON trcstat_ptracer83_mean       =   1.5018872875655223E-05
(PID.TID 0000.0001) %MON trcstat_ptracer83_sd         =   2.1668211163762815E-04
(PID.TID 0000.0001) %MON trcstat_ptracer83_del2       =   5.4297261920741340E-06
(PID.TID 0000.0001) %MON trcstat_ptracer84_max        =   6.7479141615048518E-03
(PID.TID 0000.0001) %MON trcstat_ptracer84_min        =  -1.3626434516072474E-16
(PID.TID 0000.0001) %MON trcstat_ptracer84_mean       =   1.5058501661261913E-05
(PID.TID 0000.0001) %MON trcstat_ptracer84_sd         =   2.1728913049421991E-04
(PID.TID 0000.0001) %MON trcstat_ptracer84_del2       =   5.4463984035549958E-06
(PID.TID 0000.0001) %MON trcstat_ptracer85_max        =   7.5677063783578751E+00
(PID.TID 0000.0001) %MON trcstat_ptracer85_min        =   5.5408056218119640E-28
(PID.TID 0000.0001) %MON trcstat_ptracer85_mean       =   4.4179070554214916E-01
(PID.TID 0000.0001) %MON trcstat_ptracer85_sd         =   9.5801926221104117E-01
(PID.TID 0000.0001) %MON trcstat_ptracer85_del2       =   3.5988793641607911E-03
(PID.TID 0000.0001) %MON trcstat_ptracer86_max        =   6.5376882253558718E-03
(PID.TID 0000.0001) %MON trcstat_ptracer86_min        =  -1.6307328206467865E-16
(PID.TID 0000.0001) %MON trcstat_ptracer86_mean       =   1.3981101802769540E-05
(PID.TID 0000.0001) %MON trcstat_ptracer86_sd         =   2.1159904536992546E-04
(PID.TID 0000.0001) %MON trcstat_ptracer86_del2       =   5.4925213523120121E-06
(PID.TID 0000.0001) %MON trcstat_ptracer87_max        =   2.9145436322502973E-02
(PID.TID 0000.0001) %MON trcstat_ptracer87_min        =   2.8331369710816377E-22
(PID.TID 0000.0001) %MON trcstat_ptracer87_mean       =   6.6485733786266380E-05
(PID.TID 0000.0001) %MON trcstat_ptracer87_sd         =   8.5697687667532919E-04
(PID.TID 0000.0001) %MON trcstat_ptracer87_del2       =   1.1820541843601088E-05
(PID.TID 0000.0001) %MON trcstat_ptracer88_max        =   3.9261498211158312E-02
(PID.TID 0000.0001) %MON trcstat_ptracer88_min        =   1.0759004094495373E-40
(PID.TID 0000.0001) %MON trcstat_ptracer88_mean       =   1.9860972205922012E-04
(PID.TID 0000.0001) %MON trcstat_ptracer88_sd         =   1.6402371572817257E-03
(PID.TID 0000.0001) %MON trcstat_ptracer88_del2       =   1.2216038116806182E-05
(PID.TID 0000.0001) %MON trcstat_ptracer89_max        =   8.8759370495395229E-01
(PID.TID 0000.0001) %MON trcstat_ptracer89_min        =   4.0868174003504490E-31
(PID.TID 0000.0001) %MON trcstat_ptracer89_mean       =   1.2933208905672188E-02
(PID.TID 0000.0001) %MON trcstat_ptracer89_sd         =   5.1267722202509004E-02
(PID.TID 0000.0001) %MON trcstat_ptracer89_del2       =   4.0981656339604463E-04
(PID.TID 0000.0001) %MON trcstat_ptracer90_max        =   6.2938218509705933E-03
(PID.TID 0000.0001) %MON trcstat_ptracer90_min        =   1.4894325520727700E-26
(PID.TID 0000.0001) %MON trcstat_ptracer90_mean       =   1.2747729005512768E-05
(PID.TID 0000.0001) %MON trcstat_ptracer90_sd         =   1.9911903217693754E-04
(PID.TID 0000.0001) %MON trcstat_ptracer90_del2       =   5.5494389902749900E-06
(PID.TID 0000.0001) %MON trcstat_ptracer91_max        =   6.7175041832426155E-03
(PID.TID 0000.0001) %MON trcstat_ptracer91_min        =  -5.0819751305603917E-16
(PID.TID 0000.0001) %MON trcstat_ptracer91_mean       =   1.4986621041132840E-05
(PID.TID 0000.0001) %MON trcstat_ptracer91_sd         =   2.1623342324736026E-04
(PID.TID 0000.0001) %MON trcstat_ptracer91_del2       =   5.4278676888504768E-06
(PID.TID 0000.0001) %MON trcstat_ptracer92_max        =   6.2938210944047460E-03
(PID.TID 0000.0001) %MON trcstat_ptracer92_min        =  -3.2252921643412558E-15
(PID.TID 0000.0001) %MON trcstat_ptracer92_mean       =   1.2747586905456718E-05
(PID.TID 0000.0001) %MON trcstat_ptracer92_sd         =   1.9911899112745590E-04
(PID.TID 0000.0001) %MON trcstat_ptracer92_del2       =   5.5494392462383085E-06
(PID.TID 0000.0001) %MON trcstat_ptracer93_max        =   9.7559974741876818E-02
(PID.TID 0000.0001) %MON trcstat_ptracer93_min        =   1.2000000000826993E-48
(PID.TID 0000.0001) %MON trcstat_ptracer93_mean       =   1.8947303027894044E-04
(PID.TID 0000.0001) %MON trcstat_ptracer93_sd         =   1.9056944897309141E-03
(PID.TID 0000.0001) %MON trcstat_ptracer93_del2       =   1.5985253548185431E-05
(PID.TID 0000.0001) %MON trcstat_ptracer94_max        =   8.8425267229323649E-03
(PID.TID 0000.0001) %MON trcstat_ptracer94_min        =  -1.2171280328658504E-21
(PID.TID 0000.0001) %MON trcstat_ptracer94_mean       =   2.4672773425029442E-05
(PID.TID 0000.0001) %MON trcstat_ptracer94_sd         =   3.4458638863303382E-04
(PID.TID 0000.0001) %MON trcstat_ptracer94_del2       =   4.7215749184025885E-06
(PID.TID 0000.0001) %MON trcstat_ptracer95_max        =   6.4908128885590444E-03
(PID.TID 0000.0001) %MON trcstat_ptracer95_min        =  -1.1862307713747777E-19
(PID.TID 0000.0001) %MON trcstat_ptracer95_mean       =   1.3900695774480198E-05
(PID.TID 0000.0001) %MON trcstat_ptracer95_sd         =   2.1032515831557696E-04
(PID.TID 0000.0001) %MON trcstat_ptracer95_del2       =   5.4483540991497307E-06
(PID.TID 0000.0001) %MON trcstat_ptracer96_max        =   8.3627679269298827E-01
(PID.TID 0000.0001) %MON trcstat_ptracer96_min        =   8.2272297969344331E-31
(PID.TID 0000.0001) %MON trcstat_ptracer96_mean       =   5.6474958368250096E-02
(PID.TID 0000.0001) %MON trcstat_ptracer96_sd         =   1.3264190066062995E-01
(PID.TID 0000.0001) %MON trcstat_ptracer96_del2       =   4.3185686032744930E-04
(PID.TID 0000.0001) %MON trcstat_ptracer97_max        =   1.0121801043767382E+01
(PID.TID 0000.0001) %MON trcstat_ptracer97_min        =   1.0534056342304998E-20
(PID.TID 0000.0001) %MON trcstat_ptracer97_mean       =   2.0388340863947013E-01
(PID.TID 0000.0001) %MON trcstat_ptracer97_sd         =   8.9813758665232080E-01
(PID.TID 0000.0001) %MON trcstat_ptracer97_del2       =   3.8643235913153090E-03
(PID.TID 0000.0001) // =======================================================
(PID.TID 0000.0001) // End MONITOR ptracers field statistics
(PID.TID 0000.0001) // =======================================================
 Computing Diagnostic #    210  TRAC01       Counter:       1   Parms: SMR     MR      
 Computing Diagnostic #    223  TRAC02       Counter:       1   Parms: SMR     MR      
 Computing Diagnostic #    236  TRAC03       Counter:       1   Parms: SMR     MR      
 Computing Diagnostic #    249  TRAC04       Counter:       1   Parms: SMR     MR      
 Computing Diagnostic #    262  TRAC05       Counter:       1   Parms: SMR     MR      
 Computing Diagnostic #    275  TRAC06       Counter:       1   Parms: SMR     MR      
 Computing Diagnostic #    288  TRAC07       Counter:       1   Parms: SMR     MR      
 Computing Diagnostic #    301  TRAC08       Counter:       1   Parms: SMR     MR      
 Computing Diagnostic #    314  TRAC09       Counter:       1   Parms: SMR     MR      
 Computing Diagnostic #    327  TRAC10       Counter:       1   Parms: SMR     MR      
 Computing Diagnostic #    340  TRAC11       Counter:       1   Parms: SMR     MR      
 Computing Diagnostic #    353  TRAC12       Counter:       1   Parms: SMR     MR      
 Computing Diagnostic #    366  TRAC13       Counter:       1   Parms: SMR     MR      
 Computing Diagnostic #    379  TRAC14       Counter:       1   Parms: SMR     MR      
 Computing Diagnostic #    392  TRAC15       Counter:       1   Parms: SMR     MR      
 Computing Diagnostic #    405  TRAC16       Counter:       1   Parms: SMR     MR      
 Computing Diagnostic #    418  TRAC17       Counter:       1   Parms: SMR     MR      
 Computing Diagnostic #    431  TRAC18       Counter:       1   Parms: SMR     MR      
 Computing Diagnostic #    444  TRAC19       Counter:       1   Parms: SMR     MR      
 Computing Diagnostic #    457  TRAC20       Counter:       1   Parms: SMR     MR      
 Computing Diagnostic #    470  TRAC21       Counter:       1   Parms: SMR     MR      
 Computing Diagnostic #    483  TRAC22       Counter:       1   Parms: SMR     MR      
 Computing Diagnostic #    496  TRAC23       Counter:       1   Parms: SMR     MR      
 Computing Diagnostic #    509  TRAC24       Counter:       1   Parms: SMR     MR      
 Computing Diagnostic #    522  TRAC25       Counter:       1   Parms: SMR     MR      
 Computing Diagnostic #    535  TRAC26       Counter:       1   Parms: SMR     MR      
 Computing Diagnostic #    548  TRAC27       Counter:       1   Parms: SMR     MR      
 Computing Diagnostic #    561  TRAC28       Counter:       1   Parms: SMR     MR      
 Computing Diagnostic #    574  TRAC29       Counter:       1   Parms: SMR     MR      
 Computing Diagnostic #    587  TRAC30       Counter:       1   Parms: SMR     MR      
 Computing Diagnostic #    600  TRAC31       Counter:       1   Parms: SMR     MR      
 Computing Diagnostic #    613  TRAC32       Counter:       1   Parms: SMR     MR      
 Computing Diagnostic #    626  TRAC33       Counter:       1   Parms: SMR     MR      
 Computing Diagnostic #    639  TRAC34       Counter:       1   Parms: SMR     MR      
 Computing Diagnostic #    652  TRAC35       Counter:       1   Parms: SMR     MR      
 Computing Diagnostic #    665  TRAC36       Counter:       1   Parms: SMR     MR      
 Computing Diagnostic #    678  TRAC37       Counter:       1   Parms: SMR     MR      
 Computing Diagnostic #    691  TRAC38       Counter:       1   Parms: SMR     MR      
 Computing Diagnostic #    704  TRAC39       Counter:       1   Parms: SMR     MR      
 Computing Diagnostic #    717  TRAC40       Counter:       1   Parms: SMR     MR      
 Computing Diagnostic #    730  TRAC41       Counter:       1   Parms: SMR     MR      
 Computing Diagnostic #    743  TRAC42       Counter:       1   Parms: SMR     MR      
 Computing Diagnostic #    756  TRAC43       Counter:       1   Parms: SMR     MR      
 Computing Diagnostic #    769  TRAC44       Counter:       1   Parms: SMR     MR      
 Computing Diagnostic #    782  TRAC45       Counter:       1   Parms: SMR     MR      
 Computing Diagnostic #    795  TRAC46       Counter:       1   Parms: SMR     MR      
 Computing Diagnostic #    808  TRAC47       Counter:       1   Parms: SMR     MR      
 Computing Diagnostic #    821  TRAC48       Counter:       1   Parms: SMR     MR      
 Computing Diagnostic #    834  TRAC49       Counter:       1   Parms: SMR     MR      
 Computing Diagnostic #    847  TRAC50       Counter:       1   Parms: SMR     MR      
 Computing Diagnostic #    860  TRAC51       Counter:       1   Parms: SMR     MR      
 Computing Diagnostic #    873  TRAC52       Counter:       1   Parms: SMR     MR      
 Computing Diagnostic #    886  TRAC53       Counter:       1   Parms: SMR     MR      
 Computing Diagnostic #    899  TRAC54       Counter:       1   Parms: SMR     MR      
 Computing Diagnostic #    912  TRAC55       Counter:       1   Parms: SMR     MR      
 Computing Diagnostic #    925  TRAC56       Counter:       1   Parms: SMR     MR      
 Computing Diagnostic #    938  TRAC57       Counter:       1   Parms: SMR     MR      
 Computing Diagnostic #    951  TRAC58       Counter:       1   Parms: SMR     MR      
 Computing Diagnostic #    964  TRAC59       Counter:       1   Parms: SMR     MR      
 Computing Diagnostic #    977  TRAC60       Counter:       1   Parms: SMR     MR      
 Computing Diagnostic #    990  TRAC61       Counter:       1   Parms: SMR     MR      
 Computing Diagnostic #   1003  TRAC62       Counter:       1   Parms: SMR     MR      
 Computing Diagnostic #   1016  TRAC63       Counter:       1   Parms: SMR     MR      
 Computing Diagnostic #   1029  TRAC64       Counter:       1   Parms: SMR     MR      
 Computing Diagnostic #   1042  TRAC65       Counter:       1   Parms: SMR     MR      
 Computing Diagnostic #   1055  TRAC66       Counter:       1   Parms: SMR     MR      
 Computing Diagnostic #   1068  TRAC67       Counter:       1   Parms: SMR     MR      
 Computing Diagnostic #   1081  TRAC68       Counter:       1   Parms: SMR     MR      
 Computing Diagnostic #   1094  TRAC69       Counter:       1   Parms: SMR     MR      
 Computing Diagnostic #   1107  TRAC70       Counter:       1   Parms: SMR     MR      
 Computing Diagnostic #   1120  TRAC71       Counter:       1   Parms: SMR     MR      
 Computing Diagnostic #   1133  TRAC72       Counter:       1   Parms: SMR     MR      
 Computing Diagnostic #   1146  TRAC73       Counter:       1   Parms: SMR     MR      
 Computing Diagnostic #   1159  TRAC74       Counter:       1   Parms: SMR     MR      
 Computing Diagnostic #   1172  TRAC75       Counter:       1   Parms: SMR     MR      
 Computing Diagnostic #   1185  TRAC76       Counter:       1   Parms: SMR     MR      
 Computing Diagnostic #   1198  TRAC77       Counter:       1   Parms: SMR     MR      
 Computing Diagnostic #   1211  TRAC78       Counter:       1   Parms: SMR     MR      
 Computing Diagnostic #   1224  TRAC79       Counter:       1   Parms: SMR     MR      
 Computing Diagnostic #   1237  TRAC80       Counter:       1   Parms: SMR     MR      
 Computing Diagnostic #   1250  TRAC81       Counter:       1   Parms: SMR     MR      
 Computing Diagnostic #   1263  TRAC82       Counter:       1   Parms: SMR     MR      
 Computing Diagnostic #   1276  TRAC83       Counter:       1   Parms: SMR     MR      
 Computing Diagnostic #   1289  TRAC84       Counter:       1   Parms: SMR     MR      
 Computing Diagnostic #   1302  TRAC85       Counter:       1   Parms: SMR     MR      
 Computing Diagnostic #   1315  TRAC86       Counter:       1   Parms: SMR     MR      
 Computing Diagnostic #   1328  TRAC87       Counter:       1   Parms: SMR     MR      
 Computing Diagnostic #   1341  TRAC88       Counter:       1   Parms: SMR     MR      
 Computing Diagnostic #   1354  TRAC89       Counter:       1   Parms: SMR     MR      
 Computing Diagnostic #   1367  TRAC90       Counter:       1   Parms: SMR     MR      
 Computing Diagnostic #   1380  TRAC91       Counter:       1   Parms: SMR     MR      
 Computing Diagnostic #   1393  TRAC92       Counter:       1   Parms: SMR     MR      
 Computing Diagnostic #   1406  TRAC93       Counter:       1   Parms: SMR     MR      
 Computing Diagnostic #   1419  TRAC94       Counter:       1   Parms: SMR     MR      
 Computing Diagnostic #   1432  TRAC95       Counter:       1   Parms: SMR     MR      
 Computing Diagnostic #   1445  TRAC96       Counter:       1   Parms: SMR     MR      
 Computing Diagnostic #   1458  TRAC97       Counter:       1   Parms: SMR     MR      
(PID.TID 0000.0001) // =======================================================
(PID.TID 0000.0001) // Begin MONITOR EXF statistics
(PID.TID 0000.0001) // =======================================================
(PID.TID 0000.0001) %MON exf_tsnumber                 =                188389
(PID.TID 0000.0001) %MON exf_time_sec                 =   2.2606680000000000E+08
(PID.TID 0000.0001) %MON exf_ustress_max              =   2.8448643605803531E-01
(PID.TID 0000.0001) %MON exf_ustress_min              =  -3.2854575990816350E-02
(PID.TID 0000.0001) %MON exf_ustress_mean             =   8.1906242882495053E-02
(PID.TID 0000.0001) %MON exf_ustress_sd               =   7.8974399443807006E-02
(PID.TID 0000.0001) %MON exf_ustress_del2             =   6.3589068232147719E-05
(PID.TID 0000.0001) %MON exf_vstress_max              =   1.6898998163079165E-01
(PID.TID 0000.0001) %MON exf_vstress_min              =  -2.0113434820255396E-01
(PID.TID 0000.0001) %MON exf_vstress_mean             =  -2.2653827812607594E-02
(PID.TID 0000.0001) %MON exf_vstress_sd               =   8.0106279839260663E-02
(PID.TID 0000.0001) %MON exf_vstress_del2             =   5.9399993904395097E-05
(PID.TID 0000.0001) %MON exf_hflux_max                =   6.3497109088766976E+01
(PID.TID 0000.0001) %MON exf_hflux_min                =  -1.7710527590219584E+02
(PID.TID 0000.0001) %MON exf_hflux_mean               =  -7.7470733718826580E+01
(PID.TID 0000.0001) %MON exf_hflux_sd                 =   5.8652825493470885E+01
(PID.TID 0000.0001) %MON exf_hflux_del2               =   7.2222410944472915E-01
(PID.TID 0000.0001) %MON exf_sflux_max                =   1.2384384197367996E-08
(PID.TID 0000.0001) %MON exf_sflux_min                =  -3.0221806468631833E-07
(PID.TID 0000.0001) %MON exf_sflux_mean               =  -9.8805159883557297E-08
(PID.TID 0000.0001) %MON exf_sflux_sd                 =   7.5284438102484344E-08
(PID.TID 0000.0001) %MON exf_sflux_del2               =   1.2384843345322894E-09
(PID.TID 0000.0001) %MON exf_uwind_max                =   1.2163292286165140E+01
(PID.TID 0000.0001) %MON exf_uwind_min                =  -2.4644160503935217E+00
(PID.TID 0000.0001) %MON exf_uwind_mean               =   5.8862224962172984E+00
(PID.TID 0000.0001) %MON exf_uwind_sd                 =   3.6559471093954503E+00
(PID.TID 0000.0001) %MON exf_uwind_del2               =   1.6457158585592045E-03
(PID.TID 0000.0001) %MON exf_vwind_max                =   1.0664458017959218E+01
(PID.TID 0000.0001) %MON exf_vwind_min                =  -8.8631103278117536E+00
(PID.TID 0000.0001) %MON exf_vwind_mean               =  -1.3712078722028491E+00
(PID.TID 0000.0001) %MON exf_vwind_sd                 =   5.4937669672576348E+00
(PID.TID 0000.0001) %MON exf_vwind_del2               =   2.0822172966916230E-03
(PID.TID 0000.0001) %MON exf_wspeed_max               =   1.3961589450323608E+01
(PID.TID 0000.0001) %MON exf_wspeed_min               =   3.8657118535841430E+00
(PID.TID 0000.0001) %MON exf_wspeed_mean              =   8.5845483541134708E+00
(PID.TID 0000.0001) %MON exf_wspeed_sd                =   2.5260207079280934E+00
(PID.TID 0000.0001) %MON exf_wspeed_del2              =   7.1627023235442316E-02
(PID.TID 0000.0001) %MON exf_atemp_max                =   2.7986124078611363E+02
(PID.TID 0000.0001) %MON exf_atemp_min                =   2.6685426217897015E+02
(PID.TID 0000.0001) %MON exf_atemp_mean               =   2.7518363676767052E+02
(PID.TID 0000.0001) %MON exf_atemp_sd                 =   2.5706533545946950E+00
(PID.TID 0000.0001) %MON exf_atemp_del2               =   1.8553326045793194E-02
(PID.TID 0000.0001) %MON exf_aqh_max                  =   6.0510926341739895E-03
(PID.TID 0000.0001) %MON exf_aqh_min                  =   2.3865097677217605E-03
(PID.TID 0000.0001) %MON exf_aqh_mean                 =   4.3269549840197043E-03
(PID.TID 0000.0001) %MON exf_aqh_sd                   =   7.4100510952411665E-04
(PID.TID 0000.0001) %MON exf_aqh_del2                 =   2.9460565741577794E-05
(PID.TID 0000.0001) %MON exf_lwflux_max               =   8.1751020201441179E+01
(PID.TID 0000.0001) %MON exf_lwflux_min               =   6.7626513174475349E+00
(PID.TID 0000.0001) %MON exf_lwflux_mean              =   3.9333186027148962E+01
(PID.TID 0000.0001) %MON exf_lwflux_sd                =   1.8805516306706739E+01
(PID.TID 0000.0001) %MON exf_lwflux_del2              =   2.7237987639991917E-01
(PID.TID 0000.0001) %MON exf_precip_max               =   3.0361377083155625E-07
(PID.TID 0000.0001) %MON exf_precip_min               =   1.8514937374685350E-09
(PID.TID 0000.0001) %MON exf_precip_mean              =   9.5270567235004948E-08
(PID.TID 0000.0001) %MON exf_precip_sd                =   7.4302544560007668E-08
(PID.TID 0000.0001) %MON exf_precip_del2              =   1.2681407832061501E-09
(PID.TID 0000.0001) %MON exf_swflux_max               =  -9.0116594309309008E+01
(PID.TID 0000.0001) %MON exf_swflux_min               =  -2.0532529254672804E+02
(PID.TID 0000.0001) %MON exf_swflux_mean              =  -1.3691610953428889E+02
(PID.TID 0000.0001) %MON exf_swflux_sd                =   2.9157229455504769E+01
(PID.TID 0000.0001) %MON exf_swflux_del2              =   9.0907819621739672E-01
(PID.TID 0000.0001) %MON exf_evap_max                 =   2.6215336988852558E-08
(PID.TID 0000.0001) %MON exf_evap_min                 =  -1.3577079960175764E-08
(PID.TID 0000.0001) %MON exf_evap_mean                =   5.1291171688607074E-09
(PID.TID 0000.0001) %MON exf_evap_sd                  =   8.5679114693469837E-09
(PID.TID 0000.0001) %MON exf_evap_del2                =   8.8200814325825637E-11
(PID.TID 0000.0001) %MON exf_swdown_max               =   2.4155916770203299E+02
(PID.TID 0000.0001) %MON exf_swdown_min               =   1.0601952271683413E+02
(PID.TID 0000.0001) %MON exf_swdown_mean              =   1.6107777592269284E+02
(PID.TID 0000.0001) %MON exf_swdown_sd                =   3.4302622888829148E+01
(PID.TID 0000.0001) %MON exf_swdown_del2              =   1.0695037602557611E+00
(PID.TID 0000.0001) %MON exf_lwdown_max               =   3.0559800373736050E+02
(PID.TID 0000.0001) %MON exf_lwdown_min               =   2.4297423608659983E+02
(PID.TID 0000.0001) %MON exf_lwdown_mean              =   2.7573503448893462E+02
(PID.TID 0000.0001) %MON exf_lwdown_sd                =   1.4913040179646563E+01
(PID.TID 0000.0001) %MON exf_lwdown_del2              =   2.0749422557094968E+00
(PID.TID 0000.0001) %MON exf_runoff_max               =   7.4975011851692206E-08
(PID.TID 0000.0001) %MON exf_runoff_min               =   0.0000000000000000E+00
(PID.TID 0000.0001) %MON exf_runoff_mean              =   8.6637098174130328E-09
(PID.TID 0000.0001) %MON exf_runoff_sd                =   1.9487938307725037E-08
(PID.TID 0000.0001) %MON exf_runoff_del2              =   6.8076164467882094E-11
(PID.TID 0000.0001) %MON exf_climsss_max              =   3.4374299004017274E+01
(PID.TID 0000.0001) %MON exf_climsss_min              =   2.9702826857685594E+00
(PID.TID 0000.0001) %MON exf_climsss_mean             =   1.2720628886129434E+01
(PID.TID 0000.0001) %MON exf_climsss_sd               =   1.0010399761468394E+01
(PID.TID 0000.0001) %MON exf_climsss_del2             =   3.2300331250825830E-03
(PID.TID 0000.0001) // =======================================================
(PID.TID 0000.0001) // End MONITOR EXF statistics
(PID.TID 0000.0001) // =======================================================
 SEAICE_LSR: Residual Initial ipass,Uice,Vice=    1  2.56049973E-02  2.36485857E-02
 SEAICE_LSR (ipass=   1) iters,dU,Resid=   384  9.52848911E-14  2.00687480E-13
 SEAICE_LSR (ipass=   1) iters,dV,Resid=   714  9.64159308E-14  2.14807370E-12
 SEAICE_LSR: Residual Initial ipass,Uice,Vice=    2  1.01720903E-02  1.23713013E-02
 SEAICE_LSR (ipass=   2) iters,dU,Resid=   380  9.02333763E-14  1.98380134E-13
 SEAICE_LSR (ipass=   2) iters,dV,Resid=   696  9.49171297E-14  2.00395152E-12
 cg2d: Sum(rhs),rhsMax =  -6.11426397455768E+02  2.79195333708435E-01
(PID.TID 0000.0001)      cg2d_init_res =   1.55322118277312E-01
(PID.TID 0000.0001)      cg2d_iters(min,last) =      -1      20
(PID.TID 0000.0001)      cg2d_last_res =   5.55845937413672E-06
 obcs          15          -3   0.0000000000000000        1.0000000000000000     
 obcs          15          -2   0.0000000000000000        1.0000000000000000     
 obcs          15          -1   0.0000000000000000        1.0000000000000000     
 obcs          15           0   0.0000000000000000        1.0000000000000000     
 obcs          15           1   1.4545092860046766E-003   1.0000000000000000     
 obcs          15           2  0.26038085301499980        1.0000000000000000     
 obcs          15           3  0.56039181878223665        1.0000000000000000     
 obcs          15           4  0.64368771920438672        1.0000000000000000     
 obcs          15           5  0.68898634278709125        1.0000000000000000     
 obcs          15           6  0.90717341252797734        1.0000000000000000     
 obcs          15           7  0.63700938246506378        1.0000000000000000     
 obcs          15           8  0.84663435192490311        1.0000000000000000     
 obcs          15           9  0.83070893105261967        1.0000000000000000     
 obcs          15          10  0.80150610132512712        1.0000000000000000     
 obcs          15          11  0.79391136608054302        1.0000000000000000     
 obcs          15          12  0.75155485219208484        1.0000000000000000     
 obcs          15          13  0.77837803281287243        1.0000000000000000     
 obcs          15          14  0.70224755665860761        1.0000000000000000     
 obcs          15          15  0.66194771895208859        1.0000000000000000     
 obcs          15          16  0.57524584366758447        1.0000000000000000     
 obcs          15          17  0.43655423290742551        1.0000000000000000     
 obcs          15          18  0.24482046455850581        1.0000000000000000     
 obcs          15          19   6.3222244965465552E-002   1.0000000000000000     
 obcs          15          20   4.7073191779925201E-002   1.0000000000000000     
 obcs          15          21   4.3410313621889421E-002   1.0000000000000000     
 obcs          15          22   4.2135906851899642E-002   1.0000000000000000     
 obcs          15          23   0.0000000000000000        1.0000000000000000     
 obcs          15          24   0.0000000000000000        1.0000000000000000     
 obcs          15          25   0.0000000000000000        1.0000000000000000     
 obcs          15          26   0.0000000000000000        1.0000000000000000     
 obcs          15          27   0.0000000000000000        1.0000000000000000     
 obcs          15          28   0.0000000000000000        1.0000000000000000     
 obcs          15          29   0.0000000000000000        1.0000000000000000     
 obcs          15          30   0.0000000000000000        1.0000000000000000     
 obcs          15          31   0.0000000000000000        1.0000000000000000     
 obcs          15          32   0.0000000000000000        1.0000000000000000     
 obcs          15          33   0.0000000000000000        1.0000000000000000     
 obcs          15          34   0.0000000000000000        1.0000000000000000     
 obcs          15          35   0.0000000000000000        1.0000000000000000     
 obcs          15          36   0.0000000000000000        1.0000000000000000     
 obcs          15          37   0.0000000000000000        1.0000000000000000     
 obcs          15          38   0.0000000000000000        1.0000000000000000     
 obcs          15          39   0.0000000000000000        1.0000000000000000     
 obcs          15          40   0.0000000000000000        1.0000000000000000     
 obcs          15          41   0.0000000000000000        1.0000000000000000     
 obcs          15          42   0.0000000000000000        1.0000000000000000     
 obcs          15          -3   0.0000000000000000        1.0000000000000000     
 obcs          15          -2   0.0000000000000000        1.0000000000000000     
 obcs          15          -1   0.0000000000000000        1.0000000000000000     
 obcs          15           0   0.0000000000000000        1.0000000000000000     
 obcs          15           1   0.0000000000000000        1.0000000000000000     
 obcs          15           2   0.0000000000000000        1.0000000000000000     
 obcs          15           3   0.0000000000000000        1.0000000000000000     
 obcs          15           4   0.0000000000000000        1.0000000000000000     
 obcs          15           5   0.0000000000000000        1.0000000000000000     
 obcs          15           6   0.0000000000000000        1.0000000000000000     
 obcs          15           7   0.0000000000000000        1.0000000000000000     
 obcs          15           8   0.0000000000000000        1.0000000000000000     
 obcs          15           9   0.0000000000000000        1.0000000000000000     
 obcs          15          10   0.0000000000000000        1.0000000000000000     
 obcs          15          11   0.0000000000000000        1.0000000000000000     
 obcs          15          12   0.0000000000000000        1.0000000000000000     
 obcs          15          13   0.0000000000000000        1.0000000000000000     
 obcs          15          14   0.0000000000000000        1.0000000000000000     
 obcs          15          15   0.0000000000000000        1.0000000000000000     
 obcs          15          16   0.0000000000000000        1.0000000000000000     
 obcs          15          17   0.0000000000000000        1.0000000000000000     
 obcs          15          18   0.0000000000000000        1.0000000000000000     
 obcs          15          19   0.0000000000000000        1.0000000000000000     
 obcs          15          20   0.0000000000000000        1.0000000000000000     
 obcs          15          21   0.0000000000000000        1.0000000000000000     
 obcs          15          22   0.0000000000000000        1.0000000000000000     
 obcs          15          23   0.0000000000000000        1.0000000000000000     
 obcs          15          24   0.0000000000000000        1.0000000000000000     
 obcs          15          25   0.0000000000000000        1.0000000000000000     
 obcs          15          26   0.0000000000000000        1.0000000000000000     
 obcs          15          27   0.0000000000000000        1.0000000000000000     
 obcs          15          28   0.0000000000000000        1.0000000000000000     
 obcs          15          29   0.0000000000000000        1.0000000000000000     
 obcs          15          30   0.0000000000000000        1.0000000000000000     
 obcs          15          31   0.0000000000000000        1.0000000000000000     
 obcs          15          32   0.0000000000000000        1.0000000000000000     
 obcs          15          33   0.0000000000000000        1.0000000000000000     
 obcs          15          34   0.0000000000000000        1.0000000000000000     
 obcs          15          35   0.0000000000000000        1.0000000000000000     
 obcs          15          36   0.0000000000000000        1.0000000000000000     
 obcs          15          37   0.0000000000000000        1.0000000000000000     
 obcs          15          38   0.0000000000000000        1.0000000000000000     
 obcs          15          39   1.4845450156606066E-003   1.0000000000000000     
 obcs          15          40  0.39443227701729472        1.0000000000000000     
 obcs          15          41   1.9443569684613418        1.0000000000000000     
 obcs          15          42  0.79956143110050082        1.0000000000000000     
(PID.TID 0000.0001) totgC    2.1740260538984849E-06   7.7095832589545797E-20
(PID.TID 0000.0001) totgN    2.2839783321607478E-07   8.0994986614193188E-21
(PID.TID 0000.0001) totgP    1.1978990862639747E-08   4.2480184286737923E-22
(PID.TID 0000.0001) totgFe   1.4301957670641173E+02   5.0717944814934061E-12
(PID.TID 0000.0001) totgSi  -5.0399872322708588E-08  -1.7872923427749597E-21
 fe   0.0000000000000000     
 fe   0.0000000000000000     
 fe   0.0000000000000000     
 fe   0.0000000000000000     
(PID.TID 0000.0001) // =======================================================
(PID.TID 0000.0001) // Begin MONITOR dynamic field statistics
(PID.TID 0000.0001) // =======================================================
(PID.TID 0000.0001) %MON time_tsnumber                =                188390
(PID.TID 0000.0001) %MON time_secondsf                =   2.2606800000000000E+08
(PID.TID 0000.0001) %MON dynstat_eta_max              =   6.6203574977399460E-01
(PID.TID 0000.0001) %MON dynstat_eta_min              =   3.7285245744389926E-02
(PID.TID 0000.0001) %MON dynstat_eta_mean             =   3.7231589868100035E-01
(PID.TID 0000.0001) %MON dynstat_eta_sd               =   1.5340325150827433E-01
(PID.TID 0000.0001) %MON dynstat_eta_del2             =   3.3833932343474562E-04
(PID.TID 0000.0001) %MON dynstat_uvel_max             =   3.9790738469170672E-01
(PID.TID 0000.0001) %MON dynstat_uvel_min             =  -3.3801874585696057E-01
(PID.TID 0000.0001) %MON dynstat_uvel_mean            =   6.3960672130289201E-03
(PID.TID 0000.0001) %MON dynstat_uvel_sd              =   6.2044434768564506E-02
(PID.TID 0000.0001) %MON dynstat_uvel_del2            =   9.6849929475227819E-04
(PID.TID 0000.0001) %MON dynstat_vvel_max             =   2.6141724756191909E-01
(PID.TID 0000.0001) %MON dynstat_vvel_min             =  -4.4939895839662586E-01
(PID.TID 0000.0001) %MON dynstat_vvel_mean            =   2.4570030257700663E-03
(PID.TID 0000.0001) %MON dynstat_vvel_sd              =   6.4140187665247927E-02
(PID.TID 0000.0001) %MON dynstat_vvel_del2            =   1.1541042756284168E-03
(PID.TID 0000.0001) %MON dynstat_wvel_max             =   4.9715217442348797E-04
(PID.TID 0000.0001) %MON dynstat_wvel_min             =  -5.0477208383194595E-04
(PID.TID 0000.0001) %MON dynstat_wvel_mean            =  -2.6287179268604867E-06
(PID.TID 0000.0001) %MON dynstat_wvel_sd              =   7.5280888322658716E-05
(PID.TID 0000.0001) %MON dynstat_wvel_del2            =   2.0334067052399563E-06
(PID.TID 0000.0001) %MON dynstat_theta_max            =   7.9701486457600197E+00
(PID.TID 0000.0001) %MON dynstat_theta_min            =  -1.6138154310538291E+00
(PID.TID 0000.0001) %MON dynstat_theta_mean           =   3.7804169892785953E+00
(PID.TID 0000.0001) %MON dynstat_theta_sd             =   2.2013727585453711E+00
(PID.TID 0000.0001) %MON dynstat_theta_del2           =   6.0358440765656421E-03
(PID.TID 0000.0001) %MON dynstat_salt_max             =   3.4927872001612194E+01
(PID.TID 0000.0001) %MON dynstat_salt_min             =   5.6522340303540934E+00
(PID.TID 0000.0001) %MON dynstat_salt_mean            =   1.5353244140663417E+01
(PID.TID 0000.0001) %MON dynstat_salt_sd              =   1.1951721052027283E+01
(PID.TID 0000.0001) %MON dynstat_salt_del2            =   3.5919536802742780E-03
(PID.TID 0000.0001) %MON forcing_qnet_max             =   2.4033340505660919E+02
(PID.TID 0000.0001) %MON forcing_qnet_min             =  -1.0662651838803920E+03
(PID.TID 0000.0001) %MON forcing_qnet_mean            =  -5.8372203736320522E+01
(PID.TID 0000.0001) %MON forcing_qnet_sd              =   8.7902746899104358E+01
(PID.TID 0000.0001) %MON forcing_qnet_del2            =   4.0257713541162934E+00
(PID.TID 0000.0001) %MON forcing_qsw_max              =   0.0000000000000000E+00
(PID.TID 0000.0001) %MON forcing_qsw_min              =  -2.0532529254672804E+02
(PID.TID 0000.0001) %MON forcing_qsw_mean             =  -1.1159174626521735E+02
(PID.TID 0000.0001) %MON forcing_qsw_sd               =   6.2307699549177620E+01
(PID.TID 0000.0001) %MON forcing_qsw_del2             =   5.0855385231648143E-01
(PID.TID 0000.0001) %MON forcing_empmr_max            =   2.8460128334672451E-03
(PID.TID 0000.0001) %MON forcing_empmr_min            =  -9.8980020027912216E-04
(PID.TID 0000.0001) %MON forcing_empmr_mean           =  -9.7448476789322331E-05
(PID.TID 0000.0001) %MON forcing_empmr_sd             =   2.0645537172248588E-04
(PID.TID 0000.0001) %MON forcing_empmr_del2           =   1.1910986569804647E-05
(PID.TID 0000.0001) %MON forcing_fu_max               =   2.8348902366461726E-01
(PID.TID 0000.0001) %MON forcing_fu_min               =  -1.1865913168423713E-01
(PID.TID 0000.0001) %MON forcing_fu_mean              =   8.6528482574503462E-02
(PID.TID 0000.0001) %MON forcing_fu_sd                =   8.4086912438860142E-02
(PID.TID 0000.0001) %MON forcing_fu_del2              =   4.1049407711327764E-04
(PID.TID 0000.0001) %MON forcing_fv_max               =   2.0287250861002906E-01
(PID.TID 0000.0001) %MON forcing_fv_min               =  -2.0107973114503641E-01
(PID.TID 0000.0001) %MON forcing_fv_mean              =  -2.7760279080403519E-02
(PID.TID 0000.0001) %MON forcing_fv_sd                =   7.7336560495800510E-02
(PID.TID 0000.0001) %MON forcing_fv_del2              =   3.9965966764502950E-04
(PID.TID 0000.0001) %MON advcfl_uvel_max              =   2.3083670835241290E-02
(PID.TID 0000.0001) %MON advcfl_vvel_max              =   3.3010930729698192E-02
(PID.TID 0000.0001) %MON advcfl_wvel_max              =   5.9658260930818566E-02
(PID.TID 0000.0001) %MON advcfl_W_hf_max              =   5.9658260930818552E-02
(PID.TID 0000.0001) %MON pe_b_mean                    =   1.3719861832778726E-02
(PID.TID 0000.0001) %MON ke_max                       =   1.0891525858773533E-01
(PID.TID 0000.0001) %MON ke_mean                      =   3.2359868293669971E-03
(PID.TID 0000.0001) %MON ke_vol                       =   2.7634533915293965E+13
(PID.TID 0000.0001) %MON vort_r_min                   =  -3.6641353745578156E-05
(PID.TID 0000.0001) %MON vort_r_max                   =   3.3043972244302240E-05
(PID.TID 0000.0001) %MON vort_a_mean                  =   1.2397552884925998E-04
(PID.TID 0000.0001) %MON vort_a_sd                    =   6.2872936380184195E-06
(PID.TID 0000.0001) %MON vort_p_mean                  =   1.7325641004044143E-04
(PID.TID 0000.0001) %MON vort_p_sd                    =   1.0960248883207685E-04
(PID.TID 0000.0001) %MON surfExpan_theta_mean         =  -5.2244475719404255E-07
(PID.TID 0000.0001) %MON surfExpan_salt_mean          =   1.4543657084718527E-06
(PID.TID 0000.0001) // =======================================================
(PID.TID 0000.0001) // End MONITOR dynamic field statistics
(PID.TID 0000.0001) // =======================================================
(PID.TID 0000.0001) // =======================================================
(PID.TID 0000.0001) // Begin OBCS MONITOR field statistics
(PID.TID 0000.0001) // =======================================================
(PID.TID 0000.0001) %MON obc_W_uVel_max               =   7.0320748349139386E-02
(PID.TID 0000.0001) %MON obc_W_uVel_min               =  -1.2524351225707863E-02
(PID.TID 0000.0001) %MON obc_W_uVel_mean              =   2.2509707790909342E-02
(PID.TID 0000.0001) %MON obc_W_uVel_sd                =   2.5878591693428713E-02
(PID.TID 0000.0001) %MON obc_W_uVel_Int               =   4.7341351731862305E+04
(PID.TID 0000.0001) %MON obc_N_vVel_max               =   1.8565460835975378E-01
(PID.TID 0000.0001) %MON obc_N_vVel_min               =  -2.5376211546483585E-01
(PID.TID 0000.0001) %MON obc_N_vVel_mean              =   1.5200265867394488E-03
(PID.TID 0000.0001) %MON obc_N_vVel_sd                =   8.5413026868881275E-02
(PID.TID 0000.0001) %MON obc_N_vVel_Int               =   4.7687044480410375E+04
(PID.TID 0000.0001) // =======================================================
(PID.TID 0000.0001) // End OBCS MONITOR field statistics
(PID.TID 0000.0001) // =======================================================
(PID.TID 0000.0001) // =======================================================
(PID.TID 0000.0001) // Begin MONITOR SEAICE statistics
(PID.TID 0000.0001) // =======================================================
(PID.TID 0000.0001) %MON seaice_tsnumber              =                188390
(PID.TID 0000.0001) %MON seaice_time_sec              =   2.2606800000000000E+08
(PID.TID 0000.0001) %MON seaice_uice_max              =   6.4769333924346129E-01
(PID.TID 0000.0001) %MON seaice_uice_min              =  -2.2002904430244696E-01
(PID.TID 0000.0001) %MON seaice_uice_mean             =   1.6763936623847453E-01
(PID.TID 0000.0001) %MON seaice_uice_sd               =   1.3340080515542366E-01
(PID.TID 0000.0001) %MON seaice_uice_del2             =   2.8288243820484352E-03
(PID.TID 0000.0001) %MON seaice_vice_max              =   4.6049695734743101E-01
(PID.TID 0000.0001) %MON seaice_vice_min              =  -5.9582211580451661E-01
(PID.TID 0000.0001) %MON seaice_vice_mean             =  -8.2341058226811648E-02
(PID.TID 0000.0001) %MON seaice_vice_sd               =   1.4816701741284513E-01
(PID.TID 0000.0001) %MON seaice_vice_del2             =   2.9844985257100479E-03
(PID.TID 0000.0001) %MON seaice_area_max              =   1.0000000000000000E+00
(PID.TID 0000.0001) %MON seaice_area_min              =   0.0000000000000000E+00
(PID.TID 0000.0001) %MON seaice_area_mean             =   2.2596139202704302E-01
(PID.TID 0000.0001) %MON seaice_area_sd               =   3.8534826962614149E-01
(PID.TID 0000.0001) %MON seaice_area_del2             =   4.5321787197648029E-03
(PID.TID 0000.0001) %MON seaice_heff_max              =   1.0116192605278591E+00
(PID.TID 0000.0001) %MON seaice_heff_min              =   0.0000000000000000E+00
(PID.TID 0000.0001) %MON seaice_heff_mean             =   1.2504071358851690E-01
(PID.TID 0000.0001) %MON seaice_heff_sd               =   2.4329592038112288E-01
(PID.TID 0000.0001) %MON seaice_heff_del2             =   2.2634689007772959E-03
(PID.TID 0000.0001) %MON seaice_hsnow_max             =   2.7612721491627129E-01
(PID.TID 0000.0001) %MON seaice_hsnow_min             =   0.0000000000000000E+00
(PID.TID 0000.0001) %MON seaice_hsnow_mean            =   3.0869363113406021E-02
(PID.TID 0000.0001) %MON seaice_hsnow_sd              =   6.4393613299176158E-02
(PID.TID 0000.0001) %MON seaice_hsnow_del2            =   3.8072087918818555E-04
(PID.TID 0000.0001) // =======================================================
(PID.TID 0000.0001) // End MONITOR SEAICE statistics
(PID.TID 0000.0001) // =======================================================
(PID.TID 0000.0001) // =======================================================
(PID.TID 0000.0001) // Begin MONITOR ptracer field statistics
(PID.TID 0000.0001) // =======================================================
(PID.TID 0000.0001) %MON trcstat_ptracer01_max        =   3.7006279619581200E+01
(PID.TID 0000.0001) %MON trcstat_ptracer01_min        =  -2.0049825758546087E-02
(PID.TID 0000.0001) %MON trcstat_ptracer01_mean       =   8.9618480225181402E-02
(PID.TID 0000.0001) %MON trcstat_ptracer01_sd         =   1.2457392424560629E+00
(PID.TID 0000.0001) %MON trcstat_ptracer01_del2       =   3.0826180182770067E+00
(PID.TID 0000.0001) %MON trcstat_ptracer02_max        =   2.4522901165204067E-01
(PID.TID 0000.0001) %MON trcstat_ptracer02_min        =   2.2680379447681122E-07
(PID.TID 0000.0001) %MON trcstat_ptracer02_mean       =   1.3592000269417658E-02
(PID.TID 0000.0001) %MON trcstat_ptracer02_sd         =   1.7840856797339964E-02
(PID.TID 0000.0001) %MON trcstat_ptracer02_del2       =   8.4052628150467739E-04
(PID.TID 0000.0001) %MON trcstat_ptracer03_max        =   2.3335987188779996E+00
(PID.TID 0000.0001) %MON trcstat_ptracer03_min        =   3.0178476284726029E-05
(PID.TID 0000.0001) %MON trcstat_ptracer03_mean       =   1.5996058566285512E-01
(PID.TID 0000.0001) %MON trcstat_ptracer03_sd         =   1.8962767191900101E-01
(PID.TID 0000.0001) %MON trcstat_ptracer03_del2       =   7.1019460772496869E-04
(PID.TID 0000.0001) %MON trcstat_ptracer04_max        =   4.4160523792093578E+01
(PID.TID 0000.0001) %MON trcstat_ptracer04_min        =   1.4930485376318687E-02
(PID.TID 0000.0001) %MON trcstat_ptracer04_mean       =   4.5817713721445337E+00
(PID.TID 0000.0001) %MON trcstat_ptracer04_sd         =   6.6982237439144088E+00
(PID.TID 0000.0001) %MON trcstat_ptracer04_del2       =   1.2513637365492436E-02
(PID.TID 0000.0001) %MON trcstat_ptracer05_max        =   4.3206107739483786E+00
(PID.TID 0000.0001) %MON trcstat_ptracer05_min        =   3.8001850540762078E-02
(PID.TID 0000.0001) %MON trcstat_ptracer05_mean       =   5.9106360182877193E-01
(PID.TID 0000.0001) %MON trcstat_ptracer05_sd         =   5.1753050660861732E-01
(PID.TID 0000.0001) %MON trcstat_ptracer05_del2       =   8.6402672729528113E-04
(PID.TID 0000.0001) %MON trcstat_ptracer06_max        =   1.5669603419120403E+02
(PID.TID 0000.0001) %MON trcstat_ptracer06_min        =   6.3040886090754478E-02
(PID.TID 0000.0001) %MON trcstat_ptracer06_mean       =   1.4711819381692646E+01
(PID.TID 0000.0001) %MON trcstat_ptracer06_sd         =   1.7084434461406239E+01
(PID.TID 0000.0001) %MON trcstat_ptracer06_del2       =   2.7941226749066305E-02
(PID.TID 0000.0001) %MON trcstat_ptracer07_max        =   1.3876604127331265E-03
(PID.TID 0000.0001) %MON trcstat_ptracer07_min        =   5.8902087747719821E-04
(PID.TID 0000.0001) %MON trcstat_ptracer07_mean       =   1.0854383063650427E-03
(PID.TID 0000.0001) %MON trcstat_ptracer07_sd         =   1.4541669403932698E-04
(PID.TID 0000.0001) %MON trcstat_ptracer07_del2       =   4.5496907450439259E-07
(PID.TID 0000.0001) %MON trcstat_ptracer08_max        =   3.3998009553655855E+01
(PID.TID 0000.0001) %MON trcstat_ptracer08_min        =   1.0006050086365807E-05
(PID.TID 0000.0001) %MON trcstat_ptracer08_mean       =   7.0075944905332586E+00
(PID.TID 0000.0001) %MON trcstat_ptracer08_sd         =   6.8286030471655339E+00
(PID.TID 0000.0001) %MON trcstat_ptracer08_del2       =   2.9994803792360011E-02
(PID.TID 0000.0001) %MON trcstat_ptracer09_max        =   4.5330679404874470E+00
(PID.TID 0000.0001) %MON trcstat_ptracer09_min        =   1.3341400115154410E-06
(PID.TID 0000.0001) %MON trcstat_ptracer09_mean       =   9.3440685028631820E-01
(PID.TID 0000.0001) %MON trcstat_ptracer09_sd         =   9.1056618462592864E-01
(PID.TID 0000.0001) %MON trcstat_ptracer09_del2       =   2.3523831451093412E-03
(PID.TID 0000.0001) %MON trcstat_ptracer10_max        =   2.8331674628046544E-01
(PID.TID 0000.0001) %MON trcstat_ptracer10_min        =   8.3383750719715061E-08
(PID.TID 0000.0001) %MON trcstat_ptracer10_mean       =   5.8400428142894888E-02
(PID.TID 0000.0001) %MON trcstat_ptracer10_sd         =   5.6910386539120540E-02
(PID.TID 0000.0001) %MON trcstat_ptracer10_del2       =   1.4702394656933383E-04
(PID.TID 0000.0001) %MON trcstat_ptracer11_max        =   2.8331674628046455E-04
(PID.TID 0000.0001) %MON trcstat_ptracer11_min        =   8.3383750719717605E-11
(PID.TID 0000.0001) %MON trcstat_ptracer11_mean       =   5.8400428131158038E-05
(PID.TID 0000.0001) %MON trcstat_ptracer11_sd         =   5.6910386593791243E-05
(PID.TID 0000.0001) %MON trcstat_ptracer11_del2       =   1.4702394698093398E-07
(PID.TID 0000.0001) %MON trcstat_ptracer12_max        =   1.2031633241080951E+02
(PID.TID 0000.0001) %MON trcstat_ptracer12_min        =   4.0579288528976914E-07
(PID.TID 0000.0001) %MON trcstat_ptracer12_mean       =   2.4535478406341844E+00
(PID.TID 0000.0001) %MON trcstat_ptracer12_sd         =   5.8859264646355856E+00
(PID.TID 0000.0001) %MON trcstat_ptracer12_del2       =   3.8672883436803709E-02
(PID.TID 0000.0001) %MON trcstat_ptracer13_max        =   1.6042177654774601E+01
(PID.TID 0000.0001) %MON trcstat_ptracer13_min        =   5.4105718038635884E-08
(PID.TID 0000.0001) %MON trcstat_ptracer13_mean       =   3.2715641371574311E-01
(PID.TID 0000.0001) %MON trcstat_ptracer13_sd         =   7.8480162330313696E-01
(PID.TID 0000.0001) %MON trcstat_ptracer13_del2       =   4.7548324032780209E-03
(PID.TID 0000.0001) %MON trcstat_ptracer14_max        =   1.0026361034234126E+00
(PID.TID 0000.0001) %MON trcstat_ptracer14_min        =   3.3816073774147427E-09
(PID.TID 0000.0001) %MON trcstat_ptracer14_mean       =   2.0447275857233944E-02
(PID.TID 0000.0001) %MON trcstat_ptracer14_sd         =   4.9050101456446060E-02
(PID.TID 0000.0001) %MON trcstat_ptracer14_del2       =   2.9717702520487630E-04
(PID.TID 0000.0001) %MON trcstat_ptracer15_max        =   3.0538380767930130E+02
(PID.TID 0000.0001) %MON trcstat_ptracer15_min        =   9.1701815425854827E-08
(PID.TID 0000.0001) %MON trcstat_ptracer15_mean       =   2.2924705900240565E+00
(PID.TID 0000.0001) %MON trcstat_ptracer15_sd         =   1.2516705845510501E+01
(PID.TID 0000.0001) %MON trcstat_ptracer15_del2       =   5.3787247616685720E-02
(PID.TID 0000.0001) %MON trcstat_ptracer16_max        =   1.0026361034234130E-03
(PID.TID 0000.0001) %MON trcstat_ptracer16_min        =   3.3816073774147416E-12
(PID.TID 0000.0001) %MON trcstat_ptracer16_mean       =   2.0447275861842249E-05
(PID.TID 0000.0001) %MON trcstat_ptracer16_sd         =   4.9050101453355041E-05
(PID.TID 0000.0001) %MON trcstat_ptracer16_del2       =   2.9717702542926240E-07
(PID.TID 0000.0001) %MON trcstat_ptracer17_max        =   0.0000000000000000E+00
(PID.TID 0000.0001) %MON trcstat_ptracer17_min        =   0.0000000000000000E+00
(PID.TID 0000.0001) %MON trcstat_ptracer17_mean       =   0.0000000000000000E+00
(PID.TID 0000.0001) %MON trcstat_ptracer17_sd         =   0.0000000000000000E+00
(PID.TID 0000.0001) %MON trcstat_ptracer17_del2       =   0.0000000000000000E+00
(PID.TID 0000.0001) %MON trcstat_ptracer18_max        =   6.7224057225122365E-03
(PID.TID 0000.0001) %MON trcstat_ptracer18_min        =  -2.5282282665525054E-17
(PID.TID 0000.0001) %MON trcstat_ptracer18_mean       =   1.5006146916836654E-05
(PID.TID 0000.0001) %MON trcstat_ptracer18_sd         =   2.1650271217942959E-04
(PID.TID 0000.0001) %MON trcstat_ptracer18_del2       =   5.4326921761251755E-06
(PID.TID 0000.0001) %MON trcstat_ptracer19_max        =   6.2861484007061944E-02
(PID.TID 0000.0001) %MON trcstat_ptracer19_min        =  -2.7122201050162140E-22
(PID.TID 0000.0001) %MON trcstat_ptracer19_mean       =   8.7981782992943276E-04
(PID.TID 0000.0001) %MON trcstat_ptracer19_sd         =   4.7882498669963545E-03
(PID.TID 0000.0001) %MON trcstat_ptracer19_del2       =   2.2778504892706891E-05
(PID.TID 0000.0001) %MON trcstat_ptracer20_max        =   6.7224064544384983E-03
(PID.TID 0000.0001) %MON trcstat_ptracer20_min        =   6.8474412761512945E-49
(PID.TID 0000.0001) %MON trcstat_ptracer20_mean       =   1.5021870545559165E-05
(PID.TID 0000.0001) %MON trcstat_ptracer20_sd         =   2.1650162405769031E-04
(PID.TID 0000.0001) %MON trcstat_ptracer20_del2       =   5.4326933837032583E-06
(PID.TID 0000.0001) %MON trcstat_ptracer21_max        =   1.7067996457283879E-02
(PID.TID 0000.0001) %MON trcstat_ptracer21_min        =   9.6815198861395011E-32
(PID.TID 0000.0001) %MON trcstat_ptracer21_mean       =   3.2277173533559403E-04
(PID.TID 0000.0001) %MON trcstat_ptracer21_sd         =   1.2944201674886194E-03
(PID.TID 0000.0001) %MON trcstat_ptracer21_del2       =   1.2566874587637146E-05
(PID.TID 0000.0001) %MON trcstat_ptracer22_max        =   6.3484356835935103E-03
(PID.TID 0000.0001) %MON trcstat_ptracer22_min        =  -3.2247058500414308E-15
(PID.TID 0000.0001) %MON trcstat_ptracer22_mean       =   1.2843727689588155E-05
(PID.TID 0000.0001) %MON trcstat_ptracer22_sd         =   2.0074363213405487E-04
(PID.TID 0000.0001) %MON trcstat_ptracer22_del2       =   5.5751963093868464E-06
(PID.TID 0000.0001) %MON trcstat_ptracer23_max        =   1.1557980267892547E+00
(PID.TID 0000.0001) %MON trcstat_ptracer23_min        =   1.5457007568834032E-17
(PID.TID 0000.0001) %MON trcstat_ptracer23_mean       =   2.9511471982587103E-02
(PID.TID 0000.0001) %MON trcstat_ptracer23_sd         =   8.1082283810396061E-02
(PID.TID 0000.0001) %MON trcstat_ptracer23_del2       =   6.3777843965260120E-04
(PID.TID 0000.0001) %MON trcstat_ptracer24_max        =   1.1073616534107575E+01
(PID.TID 0000.0001) %MON trcstat_ptracer24_min        =   8.0446875650513728E-22
(PID.TID 0000.0001) %MON trcstat_ptracer24_mean       =   1.9408565820858792E-01
(PID.TID 0000.0001) %MON trcstat_ptracer24_sd         =   7.0526279759178534E-01
(PID.TID 0000.0001) %MON trcstat_ptracer24_del2       =   5.5585636474704374E-03
(PID.TID 0000.0001) %MON trcstat_ptracer25_max        =   1.2701536368020624E-01
(PID.TID 0000.0001) %MON trcstat_ptracer25_min        =   1.1999999999984850E-48
(PID.TID 0000.0001) %MON trcstat_ptracer25_mean       =   3.6082583060037125E-04
(PID.TID 0000.0001) %MON trcstat_ptracer25_sd         =   2.9132462050863958E-03
(PID.TID 0000.0001) %MON trcstat_ptracer25_del2       =   2.0480899694653966E-05
(PID.TID 0000.0001) %MON trcstat_ptracer26_max        =   1.5622407943878589E+00
(PID.TID 0000.0001) %MON trcstat_ptracer26_min        =   1.4710172174420660E-27
(PID.TID 0000.0001) %MON trcstat_ptracer26_mean       =   1.6699179715770208E-02
(PID.TID 0000.0001) %MON trcstat_ptracer26_sd         =   8.6610080473559684E-02
(PID.TID 0000.0001) %MON trcstat_ptracer26_del2       =   8.7353463994723510E-04
(PID.TID 0000.0001) %MON trcstat_ptracer27_max        =   6.5925615499950706E-03
(PID.TID 0000.0001) %MON trcstat_ptracer27_min        =   1.5092106687462603E-12
(PID.TID 0000.0001) %MON trcstat_ptracer27_mean       =   1.4239726774574635E-05
(PID.TID 0000.0001) %MON trcstat_ptracer27_sd         =   2.1317212556306274E-04
(PID.TID 0000.0001) %MON trcstat_ptracer27_del2       =   5.4853325830257921E-06
(PID.TID 0000.0001) %MON trcstat_ptracer28_max        =   6.4964738609101002E-03
(PID.TID 0000.0001) %MON trcstat_ptracer28_min        =  -6.5388706433223866E-17
(PID.TID 0000.0001) %MON trcstat_ptracer28_mean       =   1.3922912898445653E-05
(PID.TID 0000.0001) %MON trcstat_ptracer28_sd         =   2.1062610851655354E-04
(PID.TID 0000.0001) %MON trcstat_ptracer28_del2       =   5.4521534433870465E-06
(PID.TID 0000.0001) %MON trcstat_ptracer29_max        =   6.3006341743865914E-03
(PID.TID 0000.0001) %MON trcstat_ptracer29_min        =  -2.4744839245092201E-19
(PID.TID 0000.0001) %MON trcstat_ptracer29_mean       =   1.2772066217555391E-05
(PID.TID 0000.0001) %MON trcstat_ptracer29_sd         =   1.9944849427955283E-04
(PID.TID 0000.0001) %MON trcstat_ptracer29_del2       =   5.5514508483104534E-06
(PID.TID 0000.0001) %MON trcstat_ptracer30_max        =   6.7194241941033314E-03
(PID.TID 0000.0001) %MON trcstat_ptracer30_min        =   6.8257535565819641E-49
(PID.TID 0000.0001) %MON trcstat_ptracer30_mean       =   1.5006235353514812E-05
(PID.TID 0000.0001) %MON trcstat_ptracer30_sd         =   2.1655921939960106E-04
(PID.TID 0000.0001) %MON trcstat_ptracer30_del2       =   5.4299531666303732E-06
(PID.TID 0000.0001) %MON trcstat_ptracer31_max        =   6.3553473559888078E-03
(PID.TID 0000.0001) %MON trcstat_ptracer31_min        =  -3.1185225573568915E-15
(PID.TID 0000.0001) %MON trcstat_ptracer31_mean       =   1.2845782896082136E-05
(PID.TID 0000.0001) %MON trcstat_ptracer31_sd         =   2.0066100927405335E-04
(PID.TID 0000.0001) %MON trcstat_ptracer31_del2       =   5.5692257409131089E-06
(PID.TID 0000.0001) %MON trcstat_ptracer32_max        =   6.7194241927439318E-03
(PID.TID 0000.0001) %MON trcstat_ptracer32_min        =  -7.0632941367040027E-17
(PID.TID 0000.0001) %MON trcstat_ptracer32_mean       =   1.4995822865251016E-05
(PID.TID 0000.0001) %MON trcstat_ptracer32_sd         =   2.1638953285652455E-04
(PID.TID 0000.0001) %MON trcstat_ptracer32_del2       =   5.4328056430000018E-06
(PID.TID 0000.0001) %MON trcstat_ptracer33_max        =   6.8262790893602572E-03
(PID.TID 0000.0001) %MON trcstat_ptracer33_min        =  -4.6579578949805382E-34
(PID.TID 0000.0001) %MON trcstat_ptracer33_mean       =   1.5516199456223238E-05
(PID.TID 0000.0001) %MON trcstat_ptracer33_sd         =   2.1917788695726537E-04
(PID.TID 0000.0001) %MON trcstat_ptracer33_del2       =   5.4661516778722146E-06
(PID.TID 0000.0001) %MON trcstat_ptracer34_max        =   8.5269743376548014E-03
(PID.TID 0000.0001) %MON trcstat_ptracer34_min        =   1.1859663520068910E-48
(PID.TID 0000.0001) %MON trcstat_ptracer34_mean       =   2.1126700455704822E-05
(PID.TID 0000.0001) %MON trcstat_ptracer34_sd         =   2.7198219114002816E-04
(PID.TID 0000.0001) %MON trcstat_ptracer34_del2       =   5.2049382967955604E-06
(PID.TID 0000.0001) %MON trcstat_ptracer35_max        =   3.3934657967050308E-01
(PID.TID 0000.0001) %MON trcstat_ptracer35_min        =   8.9061263545709133E-31
(PID.TID 0000.0001) %MON trcstat_ptracer35_mean       =   2.2443325118078525E-03
(PID.TID 0000.0001) %MON trcstat_ptracer35_sd         =   1.6257766856681836E-02
(PID.TID 0000.0001) %MON trcstat_ptracer35_del2       =   1.2168587813649082E-04
(PID.TID 0000.0001) %MON trcstat_ptracer36_max        =   6.7194241927468513E-03
(PID.TID 0000.0001) %MON trcstat_ptracer36_min        =  -8.5063446367294955E-17
(PID.TID 0000.0001) %MON trcstat_ptracer36_mean       =   1.4995822663246034E-05
(PID.TID 0000.0001) %MON trcstat_ptracer36_sd         =   2.1638953287149546E-04
(PID.TID 0000.0001) %MON trcstat_ptracer36_del2       =   5.4328056429771455E-06
(PID.TID 0000.0001) %MON trcstat_ptracer37_max        =   6.7260454496379952E-03
(PID.TID 0000.0001) %MON trcstat_ptracer37_min        =  -5.8380408965737601E-16
(PID.TID 0000.0001) %MON trcstat_ptracer37_mean       =   1.5018656841437473E-05
(PID.TID 0000.0001) %MON trcstat_ptracer37_sd         =   2.1662642442175074E-04
(PID.TID 0000.0001) %MON trcstat_ptracer37_del2       =   5.4301615736456114E-06
(PID.TID 0000.0001) %MON trcstat_ptracer38_max        =   6.3551205151637551E-03
(PID.TID 0000.0001) %MON trcstat_ptracer38_min        =   8.9238090147588022E-15
(PID.TID 0000.0001) %MON trcstat_ptracer38_mean       =   1.2935401042770618E-05
(PID.TID 0000.0001) %MON trcstat_ptracer38_sd         =   2.0032233724192366E-04
(PID.TID 0000.0001) %MON trcstat_ptracer38_del2       =   5.5792882053132544E-06
(PID.TID 0000.0001) %MON trcstat_ptracer39_max        =   1.2457721979069421E-01
(PID.TID 0000.0001) %MON trcstat_ptracer39_min        =   6.5087119991617195E-12
(PID.TID 0000.0001) %MON trcstat_ptracer39_mean       =   2.7565034071664473E-03
(PID.TID 0000.0001) %MON trcstat_ptracer39_sd         =   9.8920509046460589E-03
(PID.TID 0000.0001) %MON trcstat_ptracer39_del2       =   7.7417589957710228E-05
(PID.TID 0000.0001) %MON trcstat_ptracer40_max        =   6.7194242718117969E-03
(PID.TID 0000.0001) %MON trcstat_ptracer40_min        =  -1.6270224190469665E-29
(PID.TID 0000.0001) %MON trcstat_ptracer40_mean       =   1.4998114403671101E-05
(PID.TID 0000.0001) %MON trcstat_ptracer40_sd         =   2.1638937488954998E-04
(PID.TID 0000.0001) %MON trcstat_ptracer40_del2       =   5.4328057350731388E-06
(PID.TID 0000.0001) %MON trcstat_ptracer41_max        =   1.2620721087824379E-02
(PID.TID 0000.0001) %MON trcstat_ptracer41_min        =  -6.4010612363242917E-42
(PID.TID 0000.0001) %MON trcstat_ptracer41_mean       =   4.4467693976290563E-05
(PID.TID 0000.0001) %MON trcstat_ptracer41_sd         =   4.7214728296338663E-04
(PID.TID 0000.0001) %MON trcstat_ptracer41_del2       =   5.5130951965560320E-06
(PID.TID 0000.0001) %MON trcstat_ptracer42_max        =   6.5444183121662284E-03
(PID.TID 0000.0001) %MON trcstat_ptracer42_min        =  -7.4256015043627525E-19
(PID.TID 0000.0001) %MON trcstat_ptracer42_mean       =   1.4004980612858936E-05
(PID.TID 0000.0001) %MON trcstat_ptracer42_sd         =   2.1200648426085845E-04
(PID.TID 0000.0001) %MON trcstat_ptracer42_del2       =   5.4716559534535601E-06
(PID.TID 0000.0001) %MON trcstat_ptracer43_max        =   6.7224057210895421E-03
(PID.TID 0000.0001) %MON trcstat_ptracer43_min        =  -6.2152693471956907E-17
(PID.TID 0000.0001) %MON trcstat_ptracer43_mean       =   1.5006092022403174E-05
(PID.TID 0000.0001) %MON trcstat_ptracer43_sd         =   2.1650271605878584E-04
(PID.TID 0000.0001) %MON trcstat_ptracer43_del2       =   5.4326921699424880E-06
(PID.TID 0000.0001) %MON trcstat_ptracer44_max        =   6.7224057215498475E-03
(PID.TID 0000.0001) %MON trcstat_ptracer44_min        =  -9.3086657319248486E-33
(PID.TID 0000.0001) %MON trcstat_ptracer44_mean       =   1.5006145647261013E-05
(PID.TID 0000.0001) %MON trcstat_ptracer44_sd         =   2.1650271227804241E-04
(PID.TID 0000.0001) %MON trcstat_ptracer44_del2       =   5.4326921728657681E-06
(PID.TID 0000.0001) %MON trcstat_ptracer45_max        =   6.7224761361492323E-03
(PID.TID 0000.0001) %MON trcstat_ptracer45_min        =   9.3914559108562788E-49
(PID.TID 0000.0001) %MON trcstat_ptracer45_mean       =   1.6620812050361853E-05
(PID.TID 0000.0001) %MON trcstat_ptracer45_sd         =   2.1647741159290770E-04
(PID.TID 0000.0001) %MON trcstat_ptracer45_del2       =   5.4329980067349265E-06
(PID.TID 0000.0001) %MON trcstat_ptracer46_max        =   6.7945967615668772E-03
(PID.TID 0000.0001) %MON trcstat_ptracer46_min        =   1.1527298025430190E-48
(PID.TID 0000.0001) %MON trcstat_ptracer46_mean       =   1.9771725688509688E-05
(PID.TID 0000.0001) %MON trcstat_ptracer46_sd         =   2.7162292624862279E-04
(PID.TID 0000.0001) %MON trcstat_ptracer46_del2       =   4.9256180385867240E-06
(PID.TID 0000.0001) %MON trcstat_ptracer47_max        =   6.7305537127050827E-03
(PID.TID 0000.0001) %MON trcstat_ptracer47_min        =   1.2000000924605504E-48
(PID.TID 0000.0001) %MON trcstat_ptracer47_mean       =   1.6861323390578774E-05
(PID.TID 0000.0001) %MON trcstat_ptracer47_sd         =   2.1723950830097139E-04
(PID.TID 0000.0001) %MON trcstat_ptracer47_del2       =   5.4290258910483961E-06
(PID.TID 0000.0001) %MON trcstat_ptracer48_max        =   6.9233809237945424E-03
(PID.TID 0000.0001) %MON trcstat_ptracer48_min        =   5.4009802992842009E-48
(PID.TID 0000.0001) %MON trcstat_ptracer48_mean       =   1.7580911889282618E-05
(PID.TID 0000.0001) %MON trcstat_ptracer48_sd         =   2.5703705025596318E-04
(PID.TID 0000.0001) %MON trcstat_ptracer48_del2       =   5.0304697402610093E-06
(PID.TID 0000.0001) %MON trcstat_ptracer49_max        =   6.3006341746104757E-03
(PID.TID 0000.0001) %MON trcstat_ptracer49_min        =  -3.0909279874240645E-15
(PID.TID 0000.0001) %MON trcstat_ptracer49_mean       =   1.2772066198125737E-05
(PID.TID 0000.0001) %MON trcstat_ptracer49_sd         =   1.9944849428967526E-04
(PID.TID 0000.0001) %MON trcstat_ptracer49_del2       =   5.5514508482406003E-06
(PID.TID 0000.0001) %MON trcstat_ptracer50_max        =   6.7224057212036375E-03
(PID.TID 0000.0001) %MON trcstat_ptracer50_min        =  -5.1039529408168133E-16
(PID.TID 0000.0001) %MON trcstat_ptracer50_mean       =   1.5006089817330326E-05
(PID.TID 0000.0001) %MON trcstat_ptracer50_sd         =   2.1650271622638409E-04
(PID.TID 0000.0001) %MON trcstat_ptracer50_del2       =   5.4326921696477663E-06
(PID.TID 0000.0001) %MON trcstat_ptracer51_max        =   6.3006341745875235E-03
(PID.TID 0000.0001) %MON trcstat_ptracer51_min        =  -2.5599660070132374E-21
(PID.TID 0000.0001) %MON trcstat_ptracer51_mean       =   1.2772066236015247E-05
(PID.TID 0000.0001) %MON trcstat_ptracer51_sd         =   1.9944849428691136E-04
(PID.TID 0000.0001) %MON trcstat_ptracer51_del2       =   5.5514508482416523E-06
(PID.TID 0000.0001) %MON trcstat_ptracer52_max        =   3.5132863798701974E+00
(PID.TID 0000.0001) %MON trcstat_ptracer52_min        =   5.3495290292370224E-39
(PID.TID 0000.0001) %MON trcstat_ptracer52_mean       =   3.9863491082013203E-02
(PID.TID 0000.0001) %MON trcstat_ptracer52_sd         =   2.2125068464169062E-01
(PID.TID 0000.0001) %MON trcstat_ptracer52_del2       =   1.1323341112762146E-03
(PID.TID 0000.0001) %MON trcstat_ptracer53_max        =   6.3933206733590708E-02
(PID.TID 0000.0001) %MON trcstat_ptracer53_min        =   1.9529039824221325E-42
(PID.TID 0000.0001) %MON trcstat_ptracer53_mean       =   1.1576033844715998E-04
(PID.TID 0000.0001) %MON trcstat_ptracer53_sd         =   1.1547856318865333E-03
(PID.TID 0000.0001) %MON trcstat_ptracer53_del2       =   1.0732861350454407E-05
(PID.TID 0000.0001) %MON trcstat_ptracer54_max        =   1.2896705385603731E-02
(PID.TID 0000.0001) %MON trcstat_ptracer54_min        =   1.1912331660136895E-31
(PID.TID 0000.0001) %MON trcstat_ptracer54_mean       =   2.6324855153811916E-05
(PID.TID 0000.0001) %MON trcstat_ptracer54_sd         =   3.9784136781041327E-04
(PID.TID 0000.0001) %MON trcstat_ptracer54_del2       =   5.3151646830013801E-06
(PID.TID 0000.0001) %MON trcstat_ptracer55_max        =   9.3904786950299787E-03
(PID.TID 0000.0001) %MON trcstat_ptracer55_min        =   1.1755358355861939E-48
(PID.TID 0000.0001) %MON trcstat_ptracer55_mean       =   2.4593277072144165E-05
(PID.TID 0000.0001) %MON trcstat_ptracer55_sd         =   3.0779766874950505E-04
(PID.TID 0000.0001) %MON trcstat_ptracer55_del2       =   4.9946308112356349E-06
(PID.TID 0000.0001) %MON trcstat_ptracer56_max        =   9.2417726480912114E-03
(PID.TID 0000.0001) %MON trcstat_ptracer56_min        =  -7.4390681946997847E-30
(PID.TID 0000.0001) %MON trcstat_ptracer56_mean       =   2.4848598183782547E-05
(PID.TID 0000.0001) %MON trcstat_ptracer56_sd         =   3.5322925773282937E-04
(PID.TID 0000.0001) %MON trcstat_ptracer56_del2       =   4.7516220746220074E-06
(PID.TID 0000.0001) %MON trcstat_ptracer57_max        =   8.2791711467473782E-03
(PID.TID 0000.0001) %MON trcstat_ptracer57_min        =   7.9743501216567949E-28
(PID.TID 0000.0001) %MON trcstat_ptracer57_mean       =   1.8276868424913435E-05
(PID.TID 0000.0001) %MON trcstat_ptracer57_sd         =   2.8672136510042882E-04
(PID.TID 0000.0001) %MON trcstat_ptracer57_del2       =   4.9589592779553463E-06
(PID.TID 0000.0001) %MON trcstat_ptracer58_max        =   8.3307351835740576E-03
(PID.TID 0000.0001) %MON trcstat_ptracer58_min        =   1.1913616290633865E-48
(PID.TID 0000.0001) %MON trcstat_ptracer58_mean       =   2.0542303681550529E-05
(PID.TID 0000.0001) %MON trcstat_ptracer58_sd         =   2.6528628847977224E-04
(PID.TID 0000.0001) %MON trcstat_ptracer58_del2       =   5.2708866709281134E-06
(PID.TID 0000.0001) %MON trcstat_ptracer59_max        =   8.1247479491699890E-03
(PID.TID 0000.0001) %MON trcstat_ptracer59_min        =   1.1494926294770741E-48
(PID.TID 0000.0001) %MON trcstat_ptracer59_mean       =   2.9182374163202885E-05
(PID.TID 0000.0001) %MON trcstat_ptracer59_sd         =   3.5629160990252031E-04
(PID.TID 0000.0001) %MON trcstat_ptracer59_del2       =   4.6262383257941288E-06
(PID.TID 0000.0001) %MON trcstat_ptracer60_max        =   5.5642902176144260E-02
(PID.TID 0000.0001) %MON trcstat_ptracer60_min        =  -2.1475437762922032E-22
(PID.TID 0000.0001) %MON trcstat_ptracer60_mean       =   2.1893279875297543E-04
(PID.TID 0000.0001) %MON trcstat_ptracer60_sd         =   2.0518856047762454E-03
(PID.TID 0000.0001) %MON trcstat_ptracer60_del2       =   2.7321369974664733E-05
(PID.TID 0000.0001) %MON trcstat_ptracer61_max        =   6.4999913919908453E-03
(PID.TID 0000.0001) %MON trcstat_ptracer61_min        =   4.9355568347981205E-16
(PID.TID 0000.0001) %MON trcstat_ptracer61_mean       =   1.3934468616106593E-05
(PID.TID 0000.0001) %MON trcstat_ptracer61_sd         =   2.1073875267745449E-04
(PID.TID 0000.0001) %MON trcstat_ptracer61_del2       =   5.4496113102924026E-06
(PID.TID 0000.0001) %MON trcstat_ptracer62_max        =   6.7260454495210150E-03
(PID.TID 0000.0001) %MON trcstat_ptracer62_min        =  -6.1481025941139721E-17
(PID.TID 0000.0001) %MON trcstat_ptracer62_mean       =   1.5018659917216846E-05
(PID.TID 0000.0001) %MON trcstat_ptracer62_sd         =   2.1662642418991213E-04
(PID.TID 0000.0001) %MON trcstat_ptracer62_del2       =   5.4301615740522643E-06
(PID.TID 0000.0001) %MON trcstat_ptracer63_max        =   6.3006341745583602E-03
(PID.TID 0000.0001) %MON trcstat_ptracer63_min        =  -3.1682520135036099E-15
(PID.TID 0000.0001) %MON trcstat_ptracer63_mean       =   1.2772762466536012E-05
(PID.TID 0000.0001) %MON trcstat_ptracer63_sd         =   1.9945933298407836E-04
(PID.TID 0000.0001) %MON trcstat_ptracer63_del2       =   5.5511869045324308E-06
(PID.TID 0000.0001) %MON trcstat_ptracer64_max        =   6.3543463560618296E-03
(PID.TID 0000.0001) %MON trcstat_ptracer64_min        =  -7.6694278663441740E-23
(PID.TID 0000.0001) %MON trcstat_ptracer64_mean       =   1.2887121974056871E-05
(PID.TID 0000.0001) %MON trcstat_ptracer64_sd         =   2.0131719778497908E-04
(PID.TID 0000.0001) %MON trcstat_ptracer64_del2       =   5.5630319651082861E-06
(PID.TID 0000.0001) %MON trcstat_ptracer65_max        =   6.7260454493900893E-03
(PID.TID 0000.0001) %MON trcstat_ptracer65_min        =  -7.0363779823151999E-17
(PID.TID 0000.0001) %MON trcstat_ptracer65_mean       =   1.5018657420612844E-05
(PID.TID 0000.0001) %MON trcstat_ptracer65_sd         =   2.1662642436008655E-04
(PID.TID 0000.0001) %MON trcstat_ptracer65_del2       =   5.4301615738298953E-06
(PID.TID 0000.0001) %MON trcstat_ptracer66_max        =   6.7224057212134231E-03
(PID.TID 0000.0001) %MON trcstat_ptracer66_min        =  -3.2070499543220033E-16
(PID.TID 0000.0001) %MON trcstat_ptracer66_mean       =   1.5006089819291583E-05
(PID.TID 0000.0001) %MON trcstat_ptracer66_sd         =   2.1650271622698271E-04
(PID.TID 0000.0001) %MON trcstat_ptracer66_del2       =   5.4326921696450388E-06
(PID.TID 0000.0001) %MON trcstat_ptracer67_max        =   1.3783197822993047E-02
(PID.TID 0000.0001) %MON trcstat_ptracer67_min        =   9.3862254193506739E-29
(PID.TID 0000.0001) %MON trcstat_ptracer67_mean       =   3.0022396488212181E-05
(PID.TID 0000.0001) %MON trcstat_ptracer67_sd         =   4.2049060131054973E-04
(PID.TID 0000.0001) %MON trcstat_ptracer67_del2       =   5.5256200245217646E-06
(PID.TID 0000.0001) %MON trcstat_ptracer68_max        =   6.7359154706656613E-03
(PID.TID 0000.0001) %MON trcstat_ptracer68_min        =   1.1981318809503356E-48
(PID.TID 0000.0001) %MON trcstat_ptracer68_mean       =   1.5027851680266441E-05
(PID.TID 0000.0001) %MON trcstat_ptracer68_sd         =   2.1674055704123767E-04
(PID.TID 0000.0001) %MON trcstat_ptracer68_del2       =   5.4321729550254717E-06
(PID.TID 0000.0001) %MON trcstat_ptracer69_max        =   2.3036281465410018E+00
(PID.TID 0000.0001) %MON trcstat_ptracer69_min        =  -4.6290002637415412E-17
(PID.TID 0000.0001) %MON trcstat_ptracer69_mean       =   7.5211069854450294E-02
(PID.TID 0000.0001) %MON trcstat_ptracer69_sd         =   2.0191422472557036E-01
(PID.TID 0000.0001) %MON trcstat_ptracer69_del2       =   1.2102824744015077E-03
(PID.TID 0000.0001) %MON trcstat_ptracer70_max        =   6.4999908642386847E-03
(PID.TID 0000.0001) %MON trcstat_ptracer70_min        =  -1.6034012013721475E-16
(PID.TID 0000.0001) %MON trcstat_ptracer70_mean       =   1.3933597794179777E-05
(PID.TID 0000.0001) %MON trcstat_ptracer70_sd         =   2.1073876785823587E-04
(PID.TID 0000.0001) %MON trcstat_ptracer70_del2       =   5.4496115478841126E-06
(PID.TID 0000.0001) %MON trcstat_ptracer71_max        =   6.5048804235919690E-03
(PID.TID 0000.0001) %MON trcstat_ptracer71_min        =   5.9743329451123777E-35
(PID.TID 0000.0001) %MON trcstat_ptracer71_mean       =   1.6635815505806360E-05
(PID.TID 0000.0001) %MON trcstat_ptracer71_sd         =   2.1860560694135031E-04
(PID.TID 0000.0001) %MON trcstat_ptracer71_del2       =   5.3453040733120471E-06
(PID.TID 0000.0001) %MON trcstat_ptracer72_max        =   6.2972252531396933E-03
(PID.TID 0000.0001) %MON trcstat_ptracer72_min        =  -2.9403638094049430E-17
(PID.TID 0000.0001) %MON trcstat_ptracer72_mean       =   1.2762695177018868E-05
(PID.TID 0000.0001) %MON trcstat_ptracer72_sd         =   1.9934262563938744E-04
(PID.TID 0000.0001) %MON trcstat_ptracer72_del2       =   5.5538984047606026E-06
(PID.TID 0000.0001) %MON trcstat_ptracer73_max        =   6.2944325869363910E-03
(PID.TID 0000.0001) %MON trcstat_ptracer73_min        =   8.1333033888343774E-27
(PID.TID 0000.0001) %MON trcstat_ptracer73_mean       =   1.2754720638225072E-05
(PID.TID 0000.0001) %MON trcstat_ptracer73_sd         =   1.9924174911474039E-04
(PID.TID 0000.0001) %MON trcstat_ptracer73_del2       =   5.5539975733676082E-06
(PID.TID 0000.0001) %MON trcstat_ptracer74_max        =   6.3006341606273563E-03
(PID.TID 0000.0001) %MON trcstat_ptracer74_min        =  -1.6408999528643073E-15
(PID.TID 0000.0001) %MON trcstat_ptracer74_mean       =   1.2778772899450081E-05
(PID.TID 0000.0001) %MON trcstat_ptracer74_sd         =   1.9957299903200585E-04
(PID.TID 0000.0001) %MON trcstat_ptracer74_del2       =   5.5513661359389144E-06
(PID.TID 0000.0001) %MON trcstat_ptracer75_max        =   1.1465981925347384E+01
(PID.TID 0000.0001) %MON trcstat_ptracer75_min        =   3.9066867906453731E-13
(PID.TID 0000.0001) %MON trcstat_ptracer75_mean       =   8.1272177467663220E-01
(PID.TID 0000.0001) %MON trcstat_ptracer75_sd         =   1.2449825776503212E+00
(PID.TID 0000.0001) %MON trcstat_ptracer75_del2       =   7.4946733596857312E-03
(PID.TID 0000.0001) %MON trcstat_ptracer76_max        =   6.7772419067290311E-03
(PID.TID 0000.0001) %MON trcstat_ptracer76_min        =  -1.7787108740468746E-21
(PID.TID 0000.0001) %MON trcstat_ptracer76_mean       =   1.5093473974116427E-05
(PID.TID 0000.0001) %MON trcstat_ptracer76_sd         =   2.1805543642848229E-04
(PID.TID 0000.0001) %MON trcstat_ptracer76_del2       =   5.4544626423880163E-06
(PID.TID 0000.0001) %MON trcstat_ptracer77_max        =   6.7457733511206083E-03
(PID.TID 0000.0001) %MON trcstat_ptracer77_min        =   1.0473283374969928E-48
(PID.TID 0000.0001) %MON trcstat_ptracer77_mean       =   1.6977142832770033E-05
(PID.TID 0000.0001) %MON trcstat_ptracer77_sd         =   2.4183238072819359E-04
(PID.TID 0000.0001) %MON trcstat_ptracer77_del2       =   5.1500281638444211E-06
(PID.TID 0000.0001) %MON trcstat_ptracer78_max        =   1.7684967815731333E-02
(PID.TID 0000.0001) %MON trcstat_ptracer78_min        =  -3.4645288705083892E-39
(PID.TID 0000.0001) %MON trcstat_ptracer78_mean       =   6.2556090399778905E-05
(PID.TID 0000.0001) %MON trcstat_ptracer78_sd         =   6.2877283625848855E-04
(PID.TID 0000.0001) %MON trcstat_ptracer78_del2       =   5.5011613359621100E-06
(PID.TID 0000.0001) %MON trcstat_ptracer79_max        =   2.5334811128415793E+00
(PID.TID 0000.0001) %MON trcstat_ptracer79_min        =   2.6004350701226371E-33
(PID.TID 0000.0001) %MON trcstat_ptracer79_mean       =   1.6001496984351653E-02
(PID.TID 0000.0001) %MON trcstat_ptracer79_sd         =   1.0019048567497175E-01
(PID.TID 0000.0001) %MON trcstat_ptracer79_del2       =   5.8618677569951042E-04
(PID.TID 0000.0001) %MON trcstat_ptracer80_max        =   2.3281461454075898E-02
(PID.TID 0000.0001) %MON trcstat_ptracer80_min        =  -4.3001544464012169E-26
(PID.TID 0000.0001) %MON trcstat_ptracer80_mean       =   6.5014467706384673E-05
(PID.TID 0000.0001) %MON trcstat_ptracer80_sd         =   7.9660277547688571E-04
(PID.TID 0000.0001) %MON trcstat_ptracer80_del2       =   8.7471785977622264E-06
(PID.TID 0000.0001) %MON trcstat_ptracer81_max        =   6.8202271142962095E-03
(PID.TID 0000.0001) %MON trcstat_ptracer81_min        =   1.0115275488924585E-48
(PID.TID 0000.0001) %MON trcstat_ptracer81_mean       =   1.5185879594212148E-05
(PID.TID 0000.0001) %MON trcstat_ptracer81_sd         =   2.1855814533193653E-04
(PID.TID 0000.0001) %MON trcstat_ptracer81_del2       =   5.4716379587200696E-06
(PID.TID 0000.0001) %MON trcstat_ptracer82_max        =   6.3006341746127915E-03
(PID.TID 0000.0001) %MON trcstat_ptracer82_min        =  -3.0901460246820010E-15
(PID.TID 0000.0001) %MON trcstat_ptracer82_mean       =   1.2772066198141568E-05
(PID.TID 0000.0001) %MON trcstat_ptracer82_sd         =   1.9944849428985004E-04
(PID.TID 0000.0001) %MON trcstat_ptracer82_del2       =   5.5514508482390460E-06
(PID.TID 0000.0001) %MON trcstat_ptracer83_max        =   6.7310478044545832E-03
(PID.TID 0000.0001) %MON trcstat_ptracer83_min        =  -2.2534293845650168E-16
(PID.TID 0000.0001) %MON trcstat_ptracer83_mean       =   1.5060462947695327E-05
(PID.TID 0000.0001) %MON trcstat_ptracer83_sd         =   2.1728882092344711E-04
(PID.TID 0000.0001) %MON trcstat_ptracer83_del2       =   5.4289506787530454E-06
(PID.TID 0000.0001) %MON trcstat_ptracer84_max        =   6.7804445150560786E-03
(PID.TID 0000.0001) %MON trcstat_ptracer84_min        =  -1.3626434516072474E-16
(PID.TID 0000.0001) %MON trcstat_ptracer84_mean       =   1.5140150538598560E-05
(PID.TID 0000.0001) %MON trcstat_ptracer84_sd         =   2.1850917722461040E-04
(PID.TID 0000.0001) %MON trcstat_ptracer84_del2       =   5.4412606518413896E-06
(PID.TID 0000.0001) %MON trcstat_ptracer85_max        =   7.5463897236858068E+00
(PID.TID 0000.0001) %MON trcstat_ptracer85_min        =   5.5442751106222795E-28
(PID.TID 0000.0001) %MON trcstat_ptracer85_mean       =   4.4115165947489865E-01
(PID.TID 0000.0001) %MON trcstat_ptracer85_sd         =   9.5646218046547871E-01
(PID.TID 0000.0001) %MON trcstat_ptracer85_del2       =   3.5985927272058640E-03
(PID.TID 0000.0001) %MON trcstat_ptracer86_max        =   6.5875550983414341E-03
(PID.TID 0000.0001) %MON trcstat_ptracer86_min        =  -1.6307328206467865E-16
(PID.TID 0000.0001) %MON trcstat_ptracer86_mean       =   1.4075505805699499E-05
(PID.TID 0000.0001) %MON trcstat_ptracer86_sd         =   2.1307914783983312E-04
(PID.TID 0000.0001) %MON trcstat_ptracer86_del2       =   5.4844279794594683E-06
(PID.TID 0000.0001) %MON trcstat_ptracer87_max        =   2.9200824078245875E-02
(PID.TID 0000.0001) %MON trcstat_ptracer87_min        =   2.8362116775890960E-22
(PID.TID 0000.0001) %MON trcstat_ptracer87_mean       =   6.6751977887571752E-05
(PID.TID 0000.0001) %MON trcstat_ptracer87_sd         =   8.6042096849791271E-04
(PID.TID 0000.0001) %MON trcstat_ptracer87_del2       =   1.1868574006873543E-05
(PID.TID 0000.0001) %MON trcstat_ptracer88_max        =   3.9080654122584636E-02
(PID.TID 0000.0001) %MON trcstat_ptracer88_min        =   1.0759004046196309E-40
(PID.TID 0000.0001) %MON trcstat_ptracer88_mean       =   1.9805407306911304E-04
(PID.TID 0000.0001) %MON trcstat_ptracer88_sd         =   1.6355803681573312E-03
(PID.TID 0000.0001) %MON trcstat_ptracer88_del2       =   1.2168225162685857E-05
(PID.TID 0000.0001) %MON trcstat_ptracer89_max        =   8.8527904115941158E-01
(PID.TID 0000.0001) %MON trcstat_ptracer89_min        =   4.0868567976782735E-31
(PID.TID 0000.0001) %MON trcstat_ptracer89_mean       =   1.2911924030276115E-02
(PID.TID 0000.0001) %MON trcstat_ptracer89_sd         =   5.1163569962287242E-02
(PID.TID 0000.0001) %MON trcstat_ptracer89_del2       =   4.0839384329324795E-04
(PID.TID 0000.0001) %MON trcstat_ptracer90_max        =   6.3006349304250671E-03
(PID.TID 0000.0001) %MON trcstat_ptracer90_min        =   1.4894616728772566E-26
(PID.TID 0000.0001) %MON trcstat_ptracer90_mean       =   1.2772208055418818E-05
(PID.TID 0000.0001) %MON trcstat_ptracer90_sd         =   1.9944853521676115E-04
(PID.TID 0000.0001) %MON trcstat_ptracer90_del2       =   5.5514505940855218E-06
(PID.TID 0000.0001) %MON trcstat_ptracer91_max        =   6.7194241928867767E-03
(PID.TID 0000.0001) %MON trcstat_ptracer91_min        =  -5.0819751305603917E-16
(PID.TID 0000.0001) %MON trcstat_ptracer91_mean       =   1.4995822557612567E-05
(PID.TID 0000.0001) %MON trcstat_ptracer91_sd         =   2.1638953289005613E-04
(PID.TID 0000.0001) %MON trcstat_ptracer91_del2       =   5.4328056429163158E-06
(PID.TID 0000.0001) %MON trcstat_ptracer92_max        =   6.3006341745213499E-03
(PID.TID 0000.0001) %MON trcstat_ptracer92_min        =  -3.2246406420120333E-15
(PID.TID 0000.0001) %MON trcstat_ptracer92_mean       =   1.2772066197868253E-05
(PID.TID 0000.0001) %MON trcstat_ptracer92_sd         =   1.9944849428596477E-04
(PID.TID 0000.0001) %MON trcstat_ptracer92_del2       =   5.5514508482760630E-06
(PID.TID 0000.0001) %MON trcstat_ptracer93_max        =   9.7341037159405563E-02
(PID.TID 0000.0001) %MON trcstat_ptracer93_min        =   1.2000000000826994E-48
(PID.TID 0000.0001) %MON trcstat_ptracer93_mean       =   1.8914980195144422E-04
(PID.TID 0000.0001) %MON trcstat_ptracer93_sd         =   1.9015985010030726E-03
(PID.TID 0000.0001) %MON trcstat_ptracer93_del2       =   1.5943849749693238E-05
(PID.TID 0000.0001) %MON trcstat_ptracer94_max        =   8.8332961391327097E-03
(PID.TID 0000.0001) %MON trcstat_ptracer94_min        =  -1.2171276185761211E-21
(PID.TID 0000.0001) %MON trcstat_ptracer94_mean       =   2.4686850179121216E-05
(PID.TID 0000.0001) %MON trcstat_ptracer94_sd         =   3.4466137756628722E-04
(PID.TID 0000.0001) %MON trcstat_ptracer94_del2       =   4.7232966596278141E-06
(PID.TID 0000.0001) %MON trcstat_ptracer95_max        =   6.4935926967149065E-03
(PID.TID 0000.0001) %MON trcstat_ptracer95_min        =  -1.1860942585399456E-19
(PID.TID 0000.0001) %MON trcstat_ptracer95_mean       =   1.3913915354645035E-05
(PID.TID 0000.0001) %MON trcstat_ptracer95_sd         =   2.1051858645597390E-04
(PID.TID 0000.0001) %MON trcstat_ptracer95_del2       =   5.4522750686173973E-06
(PID.TID 0000.0001) %MON trcstat_ptracer96_max        =   8.3677902925442649E-01
(PID.TID 0000.0001) %MON trcstat_ptracer96_min        =   8.2406468848574946E-31
(PID.TID 0000.0001) %MON trcstat_ptracer96_mean       =   5.6483549169586526E-02
(PID.TID 0000.0001) %MON trcstat_ptracer96_sd         =   1.3268879187427174E-01
(PID.TID 0000.0001) %MON trcstat_ptracer96_del2       =   4.3196472691940663E-04
(PID.TID 0000.0001) %MON trcstat_ptracer97_max        =   1.0117839297725949E+01
(PID.TID 0000.0001) %MON trcstat_ptracer97_min        =   1.0672511394967770E-20
(PID.TID 0000.0001) %MON trcstat_ptracer97_mean       =   2.0396832536737841E-01
(PID.TID 0000.0001) %MON trcstat_ptracer97_sd         =   8.9849731701974445E-01
(PID.TID 0000.0001) %MON trcstat_ptracer97_del2       =   3.8642955139266324E-03
(PID.TID 0000.0001) // =======================================================
(PID.TID 0000.0001) // End MONITOR ptracers field statistics
(PID.TID 0000.0001) // =======================================================
 Computing Diagnostic #    210  TRAC01       Counter:       1   Parms: SMR     MR      
 Computing Diagnostic #    223  TRAC02       Counter:       1   Parms: SMR     MR      
 Computing Diagnostic #    236  TRAC03       Counter:       1   Parms: SMR     MR      
 Computing Diagnostic #    249  TRAC04       Counter:       1   Parms: SMR     MR      
 Computing Diagnostic #    262  TRAC05       Counter:       1   Parms: SMR     MR      
 Computing Diagnostic #    275  TRAC06       Counter:       1   Parms: SMR     MR      
 Computing Diagnostic #    288  TRAC07       Counter:       1   Parms: SMR     MR      
 Computing Diagnostic #    301  TRAC08       Counter:       1   Parms: SMR     MR      
 Computing Diagnostic #    314  TRAC09       Counter:       1   Parms: SMR     MR      
 Computing Diagnostic #    327  TRAC10       Counter:       1   Parms: SMR     MR      
 Computing Diagnostic #    340  TRAC11       Counter:       1   Parms: SMR     MR      
 Computing Diagnostic #    353  TRAC12       Counter:       1   Parms: SMR     MR      
 Computing Diagnostic #    366  TRAC13       Counter:       1   Parms: SMR     MR      
 Computing Diagnostic #    379  TRAC14       Counter:       1   Parms: SMR     MR      
 Computing Diagnostic #    392  TRAC15       Counter:       1   Parms: SMR     MR      
 Computing Diagnostic #    405  TRAC16       Counter:       1   Parms: SMR     MR      
 Computing Diagnostic #    418  TRAC17       Counter:       1   Parms: SMR     MR      
 Computing Diagnostic #    431  TRAC18       Counter:       1   Parms: SMR     MR      
 Computing Diagnostic #    444  TRAC19       Counter:       1   Parms: SMR     MR      
 Computing Diagnostic #    457  TRAC20       Counter:       1   Parms: SMR     MR      
 Computing Diagnostic #    470  TRAC21       Counter:       1   Parms: SMR     MR      
 Computing Diagnostic #    483  TRAC22       Counter:       1   Parms: SMR     MR      
 Computing Diagnostic #    496  TRAC23       Counter:       1   Parms: SMR     MR      
 Computing Diagnostic #    509  TRAC24       Counter:       1   Parms: SMR     MR      
 Computing Diagnostic #    522  TRAC25       Counter:       1   Parms: SMR     MR      
 Computing Diagnostic #    535  TRAC26       Counter:       1   Parms: SMR     MR      
 Computing Diagnostic #    548  TRAC27       Counter:       1   Parms: SMR     MR      
 Computing Diagnostic #    561  TRAC28       Counter:       1   Parms: SMR     MR      
 Computing Diagnostic #    574  TRAC29       Counter:       1   Parms: SMR     MR      
 Computing Diagnostic #    587  TRAC30       Counter:       1   Parms: SMR     MR      
 Computing Diagnostic #    600  TRAC31       Counter:       1   Parms: SMR     MR      
 Computing Diagnostic #    613  TRAC32       Counter:       1   Parms: SMR     MR      
 Computing Diagnostic #    626  TRAC33       Counter:       1   Parms: SMR     MR      
 Computing Diagnostic #    639  TRAC34       Counter:       1   Parms: SMR     MR      
 Computing Diagnostic #    652  TRAC35       Counter:       1   Parms: SMR     MR      
 Computing Diagnostic #    665  TRAC36       Counter:       1   Parms: SMR     MR      
 Computing Diagnostic #    678  TRAC37       Counter:       1   Parms: SMR     MR      
 Computing Diagnostic #    691  TRAC38       Counter:       1   Parms: SMR     MR      
 Computing Diagnostic #    704  TRAC39       Counter:       1   Parms: SMR     MR      
 Computing Diagnostic #    717  TRAC40       Counter:       1   Parms: SMR     MR      
 Computing Diagnostic #    730  TRAC41       Counter:       1   Parms: SMR     MR      
 Computing Diagnostic #    743  TRAC42       Counter:       1   Parms: SMR     MR      
 Computing Diagnostic #    756  TRAC43       Counter:       1   Parms: SMR     MR      
 Computing Diagnostic #    769  TRAC44       Counter:       1   Parms: SMR     MR      
 Computing Diagnostic #    782  TRAC45       Counter:       1   Parms: SMR     MR      
 Computing Diagnostic #    795  TRAC46       Counter:       1   Parms: SMR     MR      
 Computing Diagnostic #    808  TRAC47       Counter:       1   Parms: SMR     MR      
 Computing Diagnostic #    821  TRAC48       Counter:       1   Parms: SMR     MR      
 Computing Diagnostic #    834  TRAC49       Counter:       1   Parms: SMR     MR      
 Computing Diagnostic #    847  TRAC50       Counter:       1   Parms: SMR     MR      
 Computing Diagnostic #    860  TRAC51       Counter:       1   Parms: SMR     MR      
 Computing Diagnostic #    873  TRAC52       Counter:       1   Parms: SMR     MR      
 Computing Diagnostic #    886  TRAC53       Counter:       1   Parms: SMR     MR      
 Computing Diagnostic #    899  TRAC54       Counter:       1   Parms: SMR     MR      
 Computing Diagnostic #    912  TRAC55       Counter:       1   Parms: SMR     MR      
 Computing Diagnostic #    925  TRAC56       Counter:       1   Parms: SMR     MR      
 Computing Diagnostic #    938  TRAC57       Counter:       1   Parms: SMR     MR      
 Computing Diagnostic #    951  TRAC58       Counter:       1   Parms: SMR     MR      
 Computing Diagnostic #    964  TRAC59       Counter:       1   Parms: SMR     MR      
 Computing Diagnostic #    977  TRAC60       Counter:       1   Parms: SMR     MR      
 Computing Diagnostic #    990  TRAC61       Counter:       1   Parms: SMR     MR      
 Computing Diagnostic #   1003  TRAC62       Counter:       1   Parms: SMR     MR      
 Computing Diagnostic #   1016  TRAC63       Counter:       1   Parms: SMR     MR      
 Computing Diagnostic #   1029  TRAC64       Counter:       1   Parms: SMR     MR      
 Computing Diagnostic #   1042  TRAC65       Counter:       1   Parms: SMR     MR      
 Computing Diagnostic #   1055  TRAC66       Counter:       1   Parms: SMR     MR      
 Computing Diagnostic #   1068  TRAC67       Counter:       1   Parms: SMR     MR      
 Computing Diagnostic #   1081  TRAC68       Counter:       1   Parms: SMR     MR      
 Computing Diagnostic #   1094  TRAC69       Counter:       1   Parms: SMR     MR      
 Computing Diagnostic #   1107  TRAC70       Counter:       1   Parms: SMR     MR      
 Computing Diagnostic #   1120  TRAC71       Counter:       1   Parms: SMR     MR      
 Computing Diagnostic #   1133  TRAC72       Counter:       1   Parms: SMR     MR      
 Computing Diagnostic #   1146  TRAC73       Counter:       1   Parms: SMR     MR      
 Computing Diagnostic #   1159  TRAC74       Counter:       1   Parms: SMR     MR      
 Computing Diagnostic #   1172  TRAC75       Counter:       1   Parms: SMR     MR      
 Computing Diagnostic #   1185  TRAC76       Counter:       1   Parms: SMR     MR      
 Computing Diagnostic #   1198  TRAC77       Counter:       1   Parms: SMR     MR      
 Computing Diagnostic #   1211  TRAC78       Counter:       1   Parms: SMR     MR      
 Computing Diagnostic #   1224  TRAC79       Counter:       1   Parms: SMR     MR      
 Computing Diagnostic #   1237  TRAC80       Counter:       1   Parms: SMR     MR      
 Computing Diagnostic #   1250  TRAC81       Counter:       1   Parms: SMR     MR      
 Computing Diagnostic #   1263  TRAC82       Counter:       1   Parms: SMR     MR      
 Computing Diagnostic #   1276  TRAC83       Counter:       1   Parms: SMR     MR      
 Computing Diagnostic #   1289  TRAC84       Counter:       1   Parms: SMR     MR      
 Computing Diagnostic #   1302  TRAC85       Counter:       1   Parms: SMR     MR      
 Computing Diagnostic #   1315  TRAC86       Counter:       1   Parms: SMR     MR      
 Computing Diagnostic #   1328  TRAC87       Counter:       1   Parms: SMR     MR      
 Computing Diagnostic #   1341  TRAC88       Counter:       1   Parms: SMR     MR      
 Computing Diagnostic #   1354  TRAC89       Counter:       1   Parms: SMR     MR      
 Computing Diagnostic #   1367  TRAC90       Counter:       1   Parms: SMR     MR      
 Computing Diagnostic #   1380  TRAC91       Counter:       1   Parms: SMR     MR      
 Computing Diagnostic #   1393  TRAC92       Counter:       1   Parms: SMR     MR      
 Computing Diagnostic #   1406  TRAC93       Counter:       1   Parms: SMR     MR      
 Computing Diagnostic #   1419  TRAC94       Counter:       1   Parms: SMR     MR      
 Computing Diagnostic #   1432  TRAC95       Counter:       1   Parms: SMR     MR      
 Computing Diagnostic #   1445  TRAC96       Counter:       1   Parms: SMR     MR      
 Computing Diagnostic #   1458  TRAC97       Counter:       1   Parms: SMR     MR      
(PID.TID 0000.0001) // =======================================================
(PID.TID 0000.0001) // Begin MONITOR EXF statistics
(PID.TID 0000.0001) // =======================================================
(PID.TID 0000.0001) %MON exf_tsnumber                 =                188390
(PID.TID 0000.0001) %MON exf_time_sec                 =   2.2606800000000000E+08
(PID.TID 0000.0001) %MON exf_ustress_max              =   2.7524258378557082E-01
(PID.TID 0000.0001) %MON exf_ustress_min              =  -3.3933636088212531E-02
(PID.TID 0000.0001) %MON exf_ustress_mean             =   7.8047152245590765E-02
(PID.TID 0000.0001) %MON exf_ustress_sd               =   7.6636099897659196E-02
(PID.TID 0000.0001) %MON exf_ustress_del2             =   6.1758341682572481E-05
(PID.TID 0000.0001) %MON exf_vstress_max              =   1.6499391408734004E-01
(PID.TID 0000.0001) %MON exf_vstress_min              =  -1.9105533612269310E-01
(PID.TID 0000.0001) %MON exf_vstress_mean             =  -2.2134252706550329E-02
(PID.TID 0000.0001) %MON exf_vstress_sd               =   7.6584337579642670E-02
(PID.TID 0000.0001) %MON exf_vstress_del2             =   5.7297497164285445E-05
(PID.TID 0000.0001) %MON exf_hflux_max                =   6.5460929154335460E+01
(PID.TID 0000.0001) %MON exf_hflux_min                =  -1.7148863743273870E+02
(PID.TID 0000.0001) %MON exf_hflux_mean               =  -7.3202500298311136E+01
(PID.TID 0000.0001) %MON exf_hflux_sd                 =   5.7783551729488607E+01
(PID.TID 0000.0001) %MON exf_hflux_del2               =   6.9584559077907737E-01
(PID.TID 0000.0001) %MON exf_sflux_max                =   1.0742477417228228E-08
(PID.TID 0000.0001) %MON exf_sflux_min                =  -2.9299286341255136E-07
(PID.TID 0000.0001) %MON exf_sflux_mean               =  -9.5914358536839142E-08
(PID.TID 0000.0001) %MON exf_sflux_sd                 =   7.1989208550005754E-08
(PID.TID 0000.0001) %MON exf_sflux_del2               =   1.1929165409273906E-09
(PID.TID 0000.0001) %MON exf_uwind_max                =   1.2009393924895605E+01
(PID.TID 0000.0001) %MON exf_uwind_min                =  -2.5384730801196698E+00
(PID.TID 0000.0001) %MON exf_uwind_mean               =   5.7232282508396892E+00
(PID.TID 0000.0001) %MON exf_uwind_sd                 =   3.6524318360212988E+00
(PID.TID 0000.0001) %MON exf_uwind_del2               =   1.6160451114500924E-03
(PID.TID 0000.0001) %MON exf_vwind_max                =   1.0543330602760465E+01
(PID.TID 0000.0001) %MON exf_vwind_min                =  -8.6060189433922254E+00
(PID.TID 0000.0001) %MON exf_vwind_mean               =  -1.4108636009874629E+00
(PID.TID 0000.0001) %MON exf_vwind_sd                 =   5.4005925141341855E+00
(PID.TID 0000.0001) %MON exf_vwind_del2               =   2.0610003113099491E-03
(PID.TID 0000.0001) %MON exf_wspeed_max               =   1.3781145697097836E+01
(PID.TID 0000.0001) %MON exf_wspeed_min               =   3.8855170793054814E+00
(PID.TID 0000.0001) %MON exf_wspeed_mean              =   8.4293051493298563E+00
(PID.TID 0000.0001) %MON exf_wspeed_sd                =   2.4898494395818602E+00
(PID.TID 0000.0001) %MON exf_wspeed_del2              =   7.0472211325193240E-02
(PID.TID 0000.0001) %MON exf_atemp_max                =   2.7983420881270234E+02
(PID.TID 0000.0001) %MON exf_atemp_min                =   2.6687602536308867E+02
(PID.TID 0000.0001) %MON exf_atemp_mean               =   2.7515143280099352E+02
(PID.TID 0000.0001) %MON exf_atemp_sd                 =   2.5521993403252230E+00
(PID.TID 0000.0001) %MON exf_atemp_del2               =   1.8332280161567835E-02
(PID.TID 0000.0001) %MON exf_aqh_max                  =   6.0197607631983048E-03
(PID.TID 0000.0001) %MON exf_aqh_min                  =   2.3891831539297574E-03
(PID.TID 0000.0001) %MON exf_aqh_mean                 =   4.3140496816815787E-03
(PID.TID 0000.0001) %MON exf_aqh_sd                   =   7.3243725226315812E-04
(PID.TID 0000.0001) %MON exf_aqh_del2                 =   2.9408147718571249E-05
(PID.TID 0000.0001) %MON exf_lwflux_max               =   8.1796412818540830E+01
(PID.TID 0000.0001) %MON exf_lwflux_min               =   6.8244794905013464E+00
(PID.TID 0000.0001) %MON exf_lwflux_mean              =   4.0144120805548354E+01
(PID.TID 0000.0001) %MON exf_lwflux_sd                =   1.8955407140026239E+01
(PID.TID 0000.0001) %MON exf_lwflux_del2              =   2.7740807603308937E-01
(PID.TID 0000.0001) %MON exf_precip_max               =   2.9448932260703735E-07
(PID.TID 0000.0001) %MON exf_precip_min               =   3.6262787242396502E-09
(PID.TID 0000.0001) %MON exf_precip_mean              =   9.2465818552529257E-08
(PID.TID 0000.0001) %MON exf_precip_sd                =   7.0937505150229857E-08
(PID.TID 0000.0001) %MON exf_precip_del2              =   1.2224804784318996E-09
(PID.TID 0000.0001) %MON exf_swflux_max               =  -8.7004312031486876E+01
(PID.TID 0000.0001) %MON exf_swflux_min               =  -2.0118764713435846E+02
(PID.TID 0000.0001) %MON exf_swflux_mean              =  -1.3386926147498775E+02
(PID.TID 0000.0001) %MON exf_swflux_sd                =   2.9380343904839481E+01
(PID.TID 0000.0001) %MON exf_swflux_del2              =   8.8511282377364353E-01
(PID.TID 0000.0001) %MON exf_evap_max                 =   2.5704995437021199E-08
(PID.TID 0000.0001) %MON exf_evap_min                 =  -1.2793919768982852E-08
(PID.TID 0000.0001) %MON exf_evap_mean                =   5.2151698331031860E-09
(PID.TID 0000.0001) %MON exf_evap_sd                  =   8.3688038963318567E-09
(PID.TID 0000.0001) %MON exf_evap_del2                =   8.7010351177759609E-11
(PID.TID 0000.0001) %MON exf_swdown_max               =   2.3669134956983348E+02
(PID.TID 0000.0001) %MON exf_swdown_min               =   1.0235801415469044E+02
(PID.TID 0000.0001) %MON exf_swdown_mean              =   1.5749324879410307E+02
(PID.TID 0000.0001) %MON exf_swdown_sd                =   3.4565110476281752E+01
(PID.TID 0000.0001) %MON exf_swdown_del2              =   1.0413092044395806E+00
(PID.TID 0000.0001) %MON exf_lwdown_max               =   3.0472782725455033E+02
(PID.TID 0000.0001) %MON exf_lwdown_min               =   2.4260940651744437E+02
(PID.TID 0000.0001) %MON exf_lwdown_mean              =   2.7493097183589180E+02
(PID.TID 0000.0001) %MON exf_lwdown_sd                =   1.4964719654061422E+01
(PID.TID 0000.0001) %MON exf_lwdown_del2              =   2.0696203314226822E+00
(PID.TID 0000.0001) %MON exf_runoff_max               =   7.4975011851692206E-08
(PID.TID 0000.0001) %MON exf_runoff_min               =   0.0000000000000000E+00
(PID.TID 0000.0001) %MON exf_runoff_mean              =   8.6637098174130328E-09
(PID.TID 0000.0001) %MON exf_runoff_sd                =   1.9487938307725037E-08
(PID.TID 0000.0001) %MON exf_runoff_del2              =   6.8076164467882094E-11
(PID.TID 0000.0001) %MON exf_climsss_max              =   3.4374217242358988E+01
(PID.TID 0000.0001) %MON exf_climsss_min              =   2.9703491636455572E+00
(PID.TID 0000.0001) %MON exf_climsss_mean             =   1.2720573107762755E+01
(PID.TID 0000.0001) %MON exf_climsss_sd               =   1.0010322971366806E+01
(PID.TID 0000.0001) %MON exf_climsss_del2             =   3.2300275761580578E-03
(PID.TID 0000.0001) // =======================================================
(PID.TID 0000.0001) // End MONITOR EXF statistics
(PID.TID 0000.0001) // =======================================================
 SEAICE_LSR: Residual Initial ipass,Uice,Vice=    1  2.20442943E-02  2.22197726E-02
 SEAICE_LSR (ipass=   1) iters,dU,Resid=   484  9.19542220E-14  2.44432711E-13
 SEAICE_LSR (ipass=   1) iters,dV,Resid=   658  9.88306659E-14  1.95006609E-12
 SEAICE_LSR: Residual Initial ipass,Uice,Vice=    2  9.10091825E-03  1.19317037E-02
 SEAICE_LSR (ipass=   2) iters,dU,Resid=   462  9.28979116E-14  2.49191990E-13
 SEAICE_LSR (ipass=   2) iters,dV,Resid=   626  9.93927163E-14  1.85092726E-12
 cg2d: Sum(rhs),rhsMax =  -6.10318040207937E+02  2.79701678536484E-01
(PID.TID 0000.0001)      cg2d_init_res =   1.63179321887865E-01
(PID.TID 0000.0001)      cg2d_iters(min,last) =      -1      20
(PID.TID 0000.0001)      cg2d_last_res =   5.77825518865817E-06
 obcs          15          -3   0.0000000000000000        1.0000000000000000     
 obcs          15          -2   0.0000000000000000        1.0000000000000000     
 obcs          15          -1   0.0000000000000000        1.0000000000000000     
 obcs          15           0   0.0000000000000000        1.0000000000000000     
 obcs          15           1   1.4543811704128818E-003   1.0000000000000000     
 obcs          15           2  0.26047340521965523        1.0000000000000000     
 obcs          15           3  0.56049419911018483        1.0000000000000000     
 obcs          15           4  0.64371917482282293        1.0000000000000000     
 obcs          15           5  0.68895145688877735        1.0000000000000000     
 obcs          15           6  0.90728111532542233        1.0000000000000000     
 obcs          15           7  0.63720386996458134        1.0000000000000000     
 obcs          15           8  0.84693814732663619        1.0000000000000000     
 obcs          15           9  0.83102523181282106        1.0000000000000000     
 obcs          15          10  0.80183230006629658        1.0000000000000000     
 obcs          15          11  0.79428441024543162        1.0000000000000000     
 obcs          15          12  0.75193971012785132        1.0000000000000000     
 obcs          15          13  0.77891293273923179        1.0000000000000000     
 obcs          15          14  0.70284942655615468        1.0000000000000000     
 obcs          15          15  0.66260753140423467        1.0000000000000000     
 obcs          15          16  0.57583746153230220        1.0000000000000000     
 obcs          15          17  0.43695455380394810        1.0000000000000000     
 obcs          15          18  0.24499773049900114        1.0000000000000000     
 obcs          15          19   6.3289461227367963E-002   1.0000000000000000     
 obcs          15          20   4.7134622201499082E-002   1.0000000000000000     
 obcs          15          21   4.3466853429060787E-002   1.0000000000000000     
 obcs          15          22   4.2190930337894485E-002   1.0000000000000000     
 obcs          15          23   0.0000000000000000        1.0000000000000000     
 obcs          15          24   0.0000000000000000        1.0000000000000000     
 obcs          15          25   0.0000000000000000        1.0000000000000000     
 obcs          15          26   0.0000000000000000        1.0000000000000000     
 obcs          15          27   0.0000000000000000        1.0000000000000000     
 obcs          15          28   0.0000000000000000        1.0000000000000000     
 obcs          15          29   0.0000000000000000        1.0000000000000000     
 obcs          15          30   0.0000000000000000        1.0000000000000000     
 obcs          15          31   0.0000000000000000        1.0000000000000000     
 obcs          15          32   0.0000000000000000        1.0000000000000000     
 obcs          15          33   0.0000000000000000        1.0000000000000000     
 obcs          15          34   0.0000000000000000        1.0000000000000000     
 obcs          15          35   0.0000000000000000        1.0000000000000000     
 obcs          15          36   0.0000000000000000        1.0000000000000000     
 obcs          15          37   0.0000000000000000        1.0000000000000000     
 obcs          15          38   0.0000000000000000        1.0000000000000000     
 obcs          15          39   0.0000000000000000        1.0000000000000000     
 obcs          15          40   0.0000000000000000        1.0000000000000000     
 obcs          15          41   0.0000000000000000        1.0000000000000000     
 obcs          15          42   0.0000000000000000        1.0000000000000000     
 obcs          15          -3   0.0000000000000000        1.0000000000000000     
 obcs          15          -2   0.0000000000000000        1.0000000000000000     
 obcs          15          -1   0.0000000000000000        1.0000000000000000     
 obcs          15           0   0.0000000000000000        1.0000000000000000     
 obcs          15           1   0.0000000000000000        1.0000000000000000     
 obcs          15           2   0.0000000000000000        1.0000000000000000     
 obcs          15           3   0.0000000000000000        1.0000000000000000     
 obcs          15           4   0.0000000000000000        1.0000000000000000     
 obcs          15           5   0.0000000000000000        1.0000000000000000     
 obcs          15           6   0.0000000000000000        1.0000000000000000     
 obcs          15           7   0.0000000000000000        1.0000000000000000     
 obcs          15           8   0.0000000000000000        1.0000000000000000     
 obcs          15           9   0.0000000000000000        1.0000000000000000     
 obcs          15          10   0.0000000000000000        1.0000000000000000     
 obcs          15          11   0.0000000000000000        1.0000000000000000     
 obcs          15          12   0.0000000000000000        1.0000000000000000     
 obcs          15          13   0.0000000000000000        1.0000000000000000     
 obcs          15          14   0.0000000000000000        1.0000000000000000     
 obcs          15          15   0.0000000000000000        1.0000000000000000     
 obcs          15          16   0.0000000000000000        1.0000000000000000     
 obcs          15          17   0.0000000000000000        1.0000000000000000     
 obcs          15          18   0.0000000000000000        1.0000000000000000     
 obcs          15          19   0.0000000000000000        1.0000000000000000     
 obcs          15          20   0.0000000000000000        1.0000000000000000     
 obcs          15          21   0.0000000000000000        1.0000000000000000     
 obcs          15          22   0.0000000000000000        1.0000000000000000     
 obcs          15          23   0.0000000000000000        1.0000000000000000     
 obcs          15          24   0.0000000000000000        1.0000000000000000     
 obcs          15          25   0.0000000000000000        1.0000000000000000     
 obcs          15          26   0.0000000000000000        1.0000000000000000     
 obcs          15          27   0.0000000000000000        1.0000000000000000     
 obcs          15          28   0.0000000000000000        1.0000000000000000     
 obcs          15          29   0.0000000000000000        1.0000000000000000     
 obcs          15          30   0.0000000000000000        1.0000000000000000     
 obcs          15          31   0.0000000000000000        1.0000000000000000     
 obcs          15          32   0.0000000000000000        1.0000000000000000     
 obcs          15          33   0.0000000000000000        1.0000000000000000     
 obcs          15          34   0.0000000000000000        1.0000000000000000     
 obcs          15          35   0.0000000000000000        1.0000000000000000     
 obcs          15          36   0.0000000000000000        1.0000000000000000     
 obcs          15          37   0.0000000000000000        1.0000000000000000     
 obcs          15          38   0.0000000000000000        1.0000000000000000     
 obcs          15          39   1.4844966202211970E-003   1.0000000000000000     
 obcs          15          40  0.39191848060315404        1.0000000000000000     
 obcs          15          41   1.9191565585002017        1.0000000000000000     
 obcs          15          42  0.79259856030348808        1.0000000000000000     
(PID.TID 0000.0001) totgC    3.0118721083566100E-07   1.0680773003184356E-20
(PID.TID 0000.0001) totgN    1.0407728304334161E-07   3.6908135371679001E-21
(PID.TID 0000.0001) totgP    4.6297860702388799E-09   1.6418258242880047E-22
(PID.TID 0000.0001) totgFe   1.4301741241506159E+02   5.0717177308752123E-12
(PID.TID 0000.0001) totgSi   6.0042038643837547E-08   2.1292251540958245E-21
 fe   0.0000000000000000     
 fe   0.0000000000000000     
 fe   0.0000000000000000     
 fe   0.0000000000000000     
(PID.TID 0000.0001) // =======================================================
(PID.TID 0000.0001) // Begin MONITOR dynamic field statistics
(PID.TID 0000.0001) // =======================================================
(PID.TID 0000.0001) %MON time_tsnumber                =                188391
(PID.TID 0000.0001) %MON time_secondsf                =   2.2606920000000000E+08
(PID.TID 0000.0001) %MON dynstat_eta_max              =   6.5870034529950694E-01
(PID.TID 0000.0001) %MON dynstat_eta_min              =   4.4787763407999205E-02
(PID.TID 0000.0001) %MON dynstat_eta_mean             =   3.7231498965768450E-01
(PID.TID 0000.0001) %MON dynstat_eta_sd               =   1.5255089049170997E-01
(PID.TID 0000.0001) %MON dynstat_eta_del2             =   3.3685663321331177E-04
(PID.TID 0000.0001) %MON dynstat_uvel_max             =   3.9158039486382529E-01
(PID.TID 0000.0001) %MON dynstat_uvel_min             =  -3.3853698183629483E-01
(PID.TID 0000.0001) %MON dynstat_uvel_mean            =   5.9257474055038071E-03
(PID.TID 0000.0001) %MON dynstat_uvel_sd              =   6.2253920054142750E-02
(PID.TID 0000.0001) %MON dynstat_uvel_del2            =   9.7004925352681777E-04
(PID.TID 0000.0001) %MON dynstat_vvel_max             =   2.6173028343081994E-01
(PID.TID 0000.0001) %MON dynstat_vvel_min             =  -4.4789317957093383E-01
(PID.TID 0000.0001) %MON dynstat_vvel_mean            =   2.7348026039753599E-03
(PID.TID 0000.0001) %MON dynstat_vvel_sd              =   6.3865592639356011E-02
(PID.TID 0000.0001) %MON dynstat_vvel_del2            =   1.1556172263790748E-03
(PID.TID 0000.0001) %MON dynstat_wvel_max             =   4.9556559314067276E-04
(PID.TID 0000.0001) %MON dynstat_wvel_min             =  -5.0459587681532232E-04
(PID.TID 0000.0001) %MON dynstat_wvel_mean            =  -2.6276485284616214E-06
(PID.TID 0000.0001) %MON dynstat_wvel_sd              =   7.4954813210616319E-05
(PID.TID 0000.0001) %MON dynstat_wvel_del2            =   2.0267477734986563E-06
(PID.TID 0000.0001) %MON dynstat_theta_max            =   7.9703240327987022E+00
(PID.TID 0000.0001) %MON dynstat_theta_min            =  -1.6137967949611800E+00
(PID.TID 0000.0001) %MON dynstat_theta_mean           =   3.7806909560473190E+00
(PID.TID 0000.0001) %MON dynstat_theta_sd             =   2.2011071562384434E+00
(PID.TID 0000.0001) %MON dynstat_theta_del2           =   6.0326747289543596E-03
(PID.TID 0000.0001) %MON dynstat_salt_max             =   3.4927946546508380E+01
(PID.TID 0000.0001) %MON dynstat_salt_min             =   5.6522562459282915E+00
(PID.TID 0000.0001) %MON dynstat_salt_mean            =   1.5353186442400650E+01
(PID.TID 0000.0001) %MON dynstat_salt_sd              =   1.1951686790153458E+01
(PID.TID 0000.0001) %MON dynstat_salt_del2            =   3.5917080840931408E-03
(PID.TID 0000.0001) %MON forcing_qnet_max             =   2.4472563542180512E+02
(PID.TID 0000.0001) %MON forcing_qnet_min             =  -1.0738586279098813E+03
(PID.TID 0000.0001) %MON forcing_qnet_mean            =  -5.5433797270543373E+01
(PID.TID 0000.0001) %MON forcing_qnet_sd              =   8.5498161610521564E+01
(PID.TID 0000.0001) %MON forcing_qnet_del2            =   3.8810301573461148E+00
(PID.TID 0000.0001) %MON forcing_qsw_max              =   0.0000000000000000E+00
(PID.TID 0000.0001) %MON forcing_qsw_min              =  -2.0118764713435846E+02
(PID.TID 0000.0001) %MON forcing_qsw_mean             =  -1.0960890180322113E+02
(PID.TID 0000.0001) %MON forcing_qsw_sd               =   6.1539658524464194E+01
(PID.TID 0000.0001) %MON forcing_qsw_del2             =   4.8931345078365279E-01
(PID.TID 0000.0001) %MON forcing_empmr_max            =   2.8860573291791336E-03
(PID.TID 0000.0001) %MON forcing_empmr_min            =  -9.5790818573571591E-04
(PID.TID 0000.0001) %MON forcing_empmr_mean           =  -9.2758031550742293E-05
(PID.TID 0000.0001) %MON forcing_empmr_sd             =   1.9831093309650332E-04
(PID.TID 0000.0001) %MON forcing_empmr_del2           =   1.1506016166447261E-05
(PID.TID 0000.0001) %MON forcing_fu_max               =   2.7454544790948465E-01
(PID.TID 0000.0001) %MON forcing_fu_min               =  -1.2100339370538508E-01
(PID.TID 0000.0001) %MON forcing_fu_mean              =   8.2402646756316242E-02
(PID.TID 0000.0001) %MON forcing_fu_sd                =   8.1681692666882910E-02
(PID.TID 0000.0001) %MON forcing_fu_del2              =   4.0026241147037977E-04
(PID.TID 0000.0001) %MON forcing_fv_max               =   1.9485382405445900E-01
(PID.TID 0000.0001) %MON forcing_fv_min               =  -1.9091618531361937E-01
(PID.TID 0000.0001) %MON forcing_fv_mean              =  -2.7335295657597847E-02
(PID.TID 0000.0001) %MON forcing_fv_sd                =   7.3207359187709944E-02
(PID.TID 0000.0001) %MON forcing_fv_del2              =   3.8671563344060828E-04
(PID.TID 0000.0001) %MON advcfl_uvel_max              =   2.2942414490788873E-02
(PID.TID 0000.0001) %MON advcfl_vvel_max              =   3.2900322639535920E-02
(PID.TID 0000.0001) %MON advcfl_wvel_max              =   5.9467871176880738E-02
(PID.TID 0000.0001) %MON advcfl_W_hf_max              =   5.9467871176880731E-02
(PID.TID 0000.0001) %MON pe_b_mean                    =   1.3697739344430778E-02
(PID.TID 0000.0001) %MON ke_max                       =   1.0747538665154487E-01
(PID.TID 0000.0001) %MON ke_mean                      =   3.2302875091721329E-03
(PID.TID 0000.0001) %MON ke_vol                       =   2.7634533915293965E+13
(PID.TID 0000.0001) %MON vort_r_min                   =  -3.6217861908011592E-05
(PID.TID 0000.0001) %MON vort_r_max                   =   3.3204208611993784E-05
(PID.TID 0000.0001) %MON vort_a_mean                  =   1.2397552865078338E-04
(PID.TID 0000.0001) %MON vort_a_sd                    =   6.2845923202056088E-06
(PID.TID 0000.0001) %MON vort_p_mean                  =   1.7325640976306939E-04
(PID.TID 0000.0001) %MON vort_p_sd                    =   1.0959693592873237E-04
(PID.TID 0000.0001) %MON surfExpan_theta_mean         =  -3.3698810190436649E-07
(PID.TID 0000.0001) %MON surfExpan_salt_mean          =   1.5386897173427424E-06
(PID.TID 0000.0001) // =======================================================
(PID.TID 0000.0001) // End MONITOR dynamic field statistics
(PID.TID 0000.0001) // =======================================================
(PID.TID 0000.0001) // =======================================================
(PID.TID 0000.0001) // Begin OBCS MONITOR field statistics
(PID.TID 0000.0001) // =======================================================
(PID.TID 0000.0001) %MON obc_W_uVel_max               =   7.0311157348377451E-02
(PID.TID 0000.0001) %MON obc_W_uVel_min               =  -1.2519147138294504E-02
(PID.TID 0000.0001) %MON obc_W_uVel_mean              =   2.2507372203565908E-02
(PID.TID 0000.0001) %MON obc_W_uVel_sd                =   2.5872836711625720E-02
(PID.TID 0000.0001) %MON obc_W_uVel_Int               =   4.7336439635137052E+04
(PID.TID 0000.0001) %MON obc_N_vVel_max               =   1.8559418203400785E-01
(PID.TID 0000.0001) %MON obc_N_vVel_min               =  -2.5368529307793397E-01
(PID.TID 0000.0001) %MON obc_N_vVel_mean              =   1.5203613240550669E-03
(PID.TID 0000.0001) %MON obc_N_vVel_sd                =   8.5388517745216011E-02
(PID.TID 0000.0001) %MON obc_N_vVel_Int               =   4.7697546029132216E+04
(PID.TID 0000.0001) // =======================================================
(PID.TID 0000.0001) // End OBCS MONITOR field statistics
(PID.TID 0000.0001) // =======================================================
(PID.TID 0000.0001) // =======================================================
(PID.TID 0000.0001) // Begin MONITOR SEAICE statistics
(PID.TID 0000.0001) // =======================================================
(PID.TID 0000.0001) %MON seaice_tsnumber              =                188391
(PID.TID 0000.0001) %MON seaice_time_sec              =   2.2606920000000000E+08
(PID.TID 0000.0001) %MON seaice_uice_max              =   6.4405841114135620E-01
(PID.TID 0000.0001) %MON seaice_uice_min              =  -2.2724341586052949E-01
(PID.TID 0000.0001) %MON seaice_uice_mean             =   1.6298816004289529E-01
(PID.TID 0000.0001) %MON seaice_uice_sd               =   1.3165595128795871E-01
(PID.TID 0000.0001) %MON seaice_uice_del2             =   2.8257429482888654E-03
(PID.TID 0000.0001) %MON seaice_vice_max              =   4.5866641323491403E-01
(PID.TID 0000.0001) %MON seaice_vice_min              =  -5.9971656236441440E-01
(PID.TID 0000.0001) %MON seaice_vice_mean             =  -8.2256796404156451E-02
(PID.TID 0000.0001) %MON seaice_vice_sd               =   1.4542088460712294E-01
(PID.TID 0000.0001) %MON seaice_vice_del2             =   3.0012883413253429E-03
(PID.TID 0000.0001) %MON seaice_area_max              =   1.0000000000000000E+00
(PID.TID 0000.0001) %MON seaice_area_min              =   0.0000000000000000E+00
(PID.TID 0000.0001) %MON seaice_area_mean             =   2.2580425525126635E-01
(PID.TID 0000.0001) %MON seaice_area_sd               =   3.8538342505409501E-01
(PID.TID 0000.0001) %MON seaice_area_del2             =   4.5445166868797338E-03
(PID.TID 0000.0001) %MON seaice_heff_max              =   1.0116290139479218E+00
(PID.TID 0000.0001) %MON seaice_heff_min              =   0.0000000000000000E+00
(PID.TID 0000.0001) %MON seaice_heff_mean             =   1.2502365697409507E-01
(PID.TID 0000.0001) %MON seaice_heff_sd               =   2.4337859934308559E-01
(PID.TID 0000.0001) %MON seaice_heff_del2             =   2.2742556784803971E-03
(PID.TID 0000.0001) %MON seaice_hsnow_max             =   2.7625286127822857E-01
(PID.TID 0000.0001) %MON seaice_hsnow_min             =   0.0000000000000000E+00
(PID.TID 0000.0001) %MON seaice_hsnow_mean            =   3.0931960585433599E-02
(PID.TID 0000.0001) %MON seaice_hsnow_sd              =   6.4513790955861711E-02
(PID.TID 0000.0001) %MON seaice_hsnow_del2            =   3.8175710972697939E-04
(PID.TID 0000.0001) // =======================================================
(PID.TID 0000.0001) // End MONITOR SEAICE statistics
(PID.TID 0000.0001) // =======================================================
(PID.TID 0000.0001) // =======================================================
(PID.TID 0000.0001) // Begin MONITOR ptracer field statistics
(PID.TID 0000.0001) // =======================================================
(PID.TID 0000.0001) %MON trcstat_ptracer01_max        =   7.3641817914579164E+01
(PID.TID 0000.0001) %MON trcstat_ptracer01_min        =  -2.9958854148095390E-02
(PID.TID 0000.0001) %MON trcstat_ptracer01_mean       =   1.7756231273764178E-01
(PID.TID 0000.0001) %MON trcstat_ptracer01_sd         =   2.4866319175023297E+00
(PID.TID 0000.0001) %MON trcstat_ptracer01_del2       =   3.0672850793846851E+00
(PID.TID 0000.0001) %MON trcstat_ptracer02_max        =   2.4920126585483016E-01
(PID.TID 0000.0001) %MON trcstat_ptracer02_min        =   2.2784965364639560E-07
(PID.TID 0000.0001) %MON trcstat_ptracer02_mean       =   1.3734157279713019E-02
(PID.TID 0000.0001) %MON trcstat_ptracer02_sd         =   1.8062534316115365E-02
(PID.TID 0000.0001) %MON trcstat_ptracer02_del2       =   8.3883956639164146E-04
(PID.TID 0000.0001) %MON trcstat_ptracer03_max        =   2.3332583377030431E+00
(PID.TID 0000.0001) %MON trcstat_ptracer03_min        =   3.0151265313293860E-05
(PID.TID 0000.0001) %MON trcstat_ptracer03_mean       =   1.5996189095588761E-01
(PID.TID 0000.0001) %MON trcstat_ptracer03_sd         =   1.8961442450035013E-01
(PID.TID 0000.0001) %MON trcstat_ptracer03_del2       =   7.1006081815384544E-04
(PID.TID 0000.0001) %MON trcstat_ptracer04_max        =   4.4160101366257052E+01
(PID.TID 0000.0001) %MON trcstat_ptracer04_min        =   1.4930485372809171E-02
(PID.TID 0000.0001) %MON trcstat_ptracer04_mean       =   4.5818162666660598E+00
(PID.TID 0000.0001) %MON trcstat_ptracer04_sd         =   6.6980803190674916E+00
(PID.TID 0000.0001) %MON trcstat_ptracer04_del2       =   1.2515023370586215E-02
(PID.TID 0000.0001) %MON trcstat_ptracer05_max        =   4.3205767924701854E+00
(PID.TID 0000.0001) %MON trcstat_ptracer05_min        =   3.8004070590657857E-02
(PID.TID 0000.0001) %MON trcstat_ptracer05_mean       =   5.9107701807865531E-01
(PID.TID 0000.0001) %MON trcstat_ptracer05_sd         =   5.1751647902072762E-01
(PID.TID 0000.0001) %MON trcstat_ptracer05_del2       =   8.6426183482592157E-04
(PID.TID 0000.0001) %MON trcstat_ptracer06_max        =   1.5669459466199106E+02
(PID.TID 0000.0001) %MON trcstat_ptracer06_min        =   6.3221256432948111E-02
(PID.TID 0000.0001) %MON trcstat_ptracer06_mean       =   1.4711870626161970E+01
(PID.TID 0000.0001) %MON trcstat_ptracer06_sd         =   1.7084191170272032E+01
(PID.TID 0000.0001) %MON trcstat_ptracer06_del2       =   2.7964136541015004E-02
(PID.TID 0000.0001) %MON trcstat_ptracer07_max        =   1.3876603634405504E-03
(PID.TID 0000.0001) %MON trcstat_ptracer07_min        =   5.8921514099691047E-04
(PID.TID 0000.0001) %MON trcstat_ptracer07_mean       =   1.0854528377162568E-03
(PID.TID 0000.0001) %MON trcstat_ptracer07_sd         =   1.4540407126440141E-04
(PID.TID 0000.0001) %MON trcstat_ptracer07_del2       =   4.5489233047527945E-07
(PID.TID 0000.0001) %MON trcstat_ptracer08_max        =   3.4002242678931204E+01
(PID.TID 0000.0001) %MON trcstat_ptracer08_min        =   1.0004939387355310E-05
(PID.TID 0000.0001) %MON trcstat_ptracer08_mean       =   7.0077362930440890E+00
(PID.TID 0000.0001) %MON trcstat_ptracer08_sd         =   6.8287454205080307E+00
(PID.TID 0000.0001) %MON trcstat_ptracer08_del2       =   2.9925446871142462E-02
(PID.TID 0000.0001) %MON trcstat_ptracer09_max        =   4.5336323571908270E+00
(PID.TID 0000.0001) %MON trcstat_ptracer09_min        =   1.3339919183140412E-06
(PID.TID 0000.0001) %MON trcstat_ptracer09_mean       =   9.3448842515808173E-01
(PID.TID 0000.0001) %MON trcstat_ptracer09_sd         =   9.1067038926374888E-01
(PID.TID 0000.0001) %MON trcstat_ptracer09_del2       =   2.3517159628601422E-03
(PID.TID 0000.0001) %MON trcstat_ptracer10_max        =   2.8335202232442669E-01
(PID.TID 0000.0001) %MON trcstat_ptracer10_min        =   8.3374494894627578E-08
(PID.TID 0000.0001) %MON trcstat_ptracer10_mean       =   5.8405526572380108E-02
(PID.TID 0000.0001) %MON trcstat_ptracer10_sd         =   5.6916899328984305E-02
(PID.TID 0000.0001) %MON trcstat_ptracer10_del2       =   1.4698224767875889E-04
(PID.TID 0000.0001) %MON trcstat_ptracer11_max        =   2.8335202232442579E-04
(PID.TID 0000.0001) %MON trcstat_ptracer11_min        =   8.3374494894630110E-11
(PID.TID 0000.0001) %MON trcstat_ptracer11_mean       =   5.8405526560669295E-05
(PID.TID 0000.0001) %MON trcstat_ptracer11_sd         =   5.6916899383684601E-05
(PID.TID 0000.0001) %MON trcstat_ptracer11_del2       =   1.4698224808896468E-07
(PID.TID 0000.0001) %MON trcstat_ptracer12_max        =   1.1975933602781465E+02
(PID.TID 0000.0001) %MON trcstat_ptracer12_min        =   4.0605668872525325E-07
(PID.TID 0000.0001) %MON trcstat_ptracer12_mean       =   2.4538437427066500E+00
(PID.TID 0000.0001) %MON trcstat_ptracer12_sd         =   5.8866985031039754E+00
(PID.TID 0000.0001) %MON trcstat_ptracer12_del2       =   3.8662169887787534E-02
(PID.TID 0000.0001) %MON trcstat_ptracer13_max        =   1.5967911470375288E+01
(PID.TID 0000.0001) %MON trcstat_ptracer13_min        =   5.4140891830033754E-08
(PID.TID 0000.0001) %MON trcstat_ptracer13_mean       =   3.2721257574870316E-01
(PID.TID 0000.0001) %MON trcstat_ptracer13_sd         =   7.8491594491266481E-01
(PID.TID 0000.0001) %MON trcstat_ptracer13_del2       =   4.7536917205542144E-03
(PID.TID 0000.0001) %MON trcstat_ptracer14_max        =   9.9799446689845550E-01
(PID.TID 0000.0001) %MON trcstat_ptracer14_min        =   3.3838057393771096E-09
(PID.TID 0000.0001) %MON trcstat_ptracer14_mean       =   2.0450785984293948E-02
(PID.TID 0000.0001) %MON trcstat_ptracer14_sd         =   4.9057246557041551E-02
(PID.TID 0000.0001) %MON trcstat_ptracer14_del2       =   2.9710573253463840E-04
(PID.TID 0000.0001) %MON trcstat_ptracer15_max        =   3.0515958837835052E+02
(PID.TID 0000.0001) %MON trcstat_ptracer15_min        =   9.1370308621883923E-08
(PID.TID 0000.0001) %MON trcstat_ptracer15_mean       =   2.2923698689815772E+00
(PID.TID 0000.0001) %MON trcstat_ptracer15_sd         =   1.2513275846470345E+01
(PID.TID 0000.0001) %MON trcstat_ptracer15_del2       =   5.3793452937495094E-02
(PID.TID 0000.0001) %MON trcstat_ptracer16_max        =   9.9799446689845597E-04
(PID.TID 0000.0001) %MON trcstat_ptracer16_min        =   3.3838057393771085E-12
(PID.TID 0000.0001) %MON trcstat_ptracer16_mean       =   2.0450785988900232E-05
(PID.TID 0000.0001) %MON trcstat_ptracer16_sd         =   4.9057246553915232E-05
(PID.TID 0000.0001) %MON trcstat_ptracer16_del2       =   2.9710573275907050E-07
(PID.TID 0000.0001) %MON trcstat_ptracer17_max        =   0.0000000000000000E+00
(PID.TID 0000.0001) %MON trcstat_ptracer17_min        =   0.0000000000000000E+00
(PID.TID 0000.0001) %MON trcstat_ptracer17_mean       =   0.0000000000000000E+00
(PID.TID 0000.0001) %MON trcstat_ptracer17_sd         =   0.0000000000000000E+00
(PID.TID 0000.0001) %MON trcstat_ptracer17_del2       =   0.0000000000000000E+00
(PID.TID 0000.0001) %MON trcstat_ptracer18_max        =   6.7262484348598432E-03
(PID.TID 0000.0001) %MON trcstat_ptracer18_min        =  -2.5282282647667988E-17
(PID.TID 0000.0001) %MON trcstat_ptracer18_mean       =   1.5021075579019730E-05
(PID.TID 0000.0001) %MON trcstat_ptracer18_sd         =   2.1672201736906870E-04
(PID.TID 0000.0001) %MON trcstat_ptracer18_del2       =   5.4370855278237054E-06
(PID.TID 0000.0001) %MON trcstat_ptracer19_max        =   6.2587128329025313E-02
(PID.TID 0000.0001) %MON trcstat_ptracer19_min        =  -2.7122201001581343E-22
(PID.TID 0000.0001) %MON trcstat_ptracer19_mean       =   8.7700764644460061E-04
(PID.TID 0000.0001) %MON trcstat_ptracer19_sd         =   4.7710575860227707E-03
(PID.TID 0000.0001) %MON trcstat_ptracer19_del2       =   2.2689942897041247E-05
(PID.TID 0000.0001) %MON trcstat_ptracer20_max        =   6.7262491636008075E-03
(PID.TID 0000.0001) %MON trcstat_ptracer20_min        =   6.8472708111037870E-49
(PID.TID 0000.0001) %MON trcstat_ptracer20_mean       =   1.5036772177741248E-05
(PID.TID 0000.0001) %MON trcstat_ptracer20_sd         =   2.1672093104709638E-04
(PID.TID 0000.0001) %MON trcstat_ptracer20_del2       =   5.4370867335500658E-06
(PID.TID 0000.0001) %MON trcstat_ptracer21_max        =   1.7068089177012021E-02
(PID.TID 0000.0001) %MON trcstat_ptracer21_min        =   9.6846536907418149E-32
(PID.TID 0000.0001) %MON trcstat_ptracer21_mean       =   3.2287689517518560E-04
(PID.TID 0000.0001) %MON trcstat_ptracer21_sd         =   1.2946796606420959E-03
(PID.TID 0000.0001) %MON trcstat_ptracer21_del2       =   1.2555170943668540E-05
(PID.TID 0000.0001) %MON trcstat_ptracer22_max        =   6.3795414240577523E-03
(PID.TID 0000.0001) %MON trcstat_ptracer22_min        =  -3.2239285802591449E-15
(PID.TID 0000.0001) %MON trcstat_ptracer22_mean       =   1.2905065923045623E-05
(PID.TID 0000.0001) %MON trcstat_ptracer22_sd         =   2.0173466751920299E-04
(PID.TID 0000.0001) %MON trcstat_ptracer22_del2       =   5.5702117725551382E-06
(PID.TID 0000.0001) %MON trcstat_ptracer23_max        =   1.1537299276960078E+00
(PID.TID 0000.0001) %MON trcstat_ptracer23_min        =   1.5440010360186046E-17
(PID.TID 0000.0001) %MON trcstat_ptracer23_mean       =   2.9456374822111376E-02
(PID.TID 0000.0001) %MON trcstat_ptracer23_sd         =   8.0877960810954219E-02
(PID.TID 0000.0001) %MON trcstat_ptracer23_del2       =   6.3570155107973731E-04
(PID.TID 0000.0001) %MON trcstat_ptracer24_max        =   1.1055984015505775E+01
(PID.TID 0000.0001) %MON trcstat_ptracer24_min        =   8.0446875578245840E-22
(PID.TID 0000.0001) %MON trcstat_ptracer24_mean       =   1.9380162677671792E-01
(PID.TID 0000.0001) %MON trcstat_ptracer24_sd         =   7.0397797038678078E-01
(PID.TID 0000.0001) %MON trcstat_ptracer24_del2       =   5.5414879370880845E-03
(PID.TID 0000.0001) %MON trcstat_ptracer25_max        =   1.2699079406163602E-01
(PID.TID 0000.0001) %MON trcstat_ptracer25_min        =   1.1999999999984850E-48
(PID.TID 0000.0001) %MON trcstat_ptracer25_mean       =   3.6139744611051686E-04
(PID.TID 0000.0001) %MON trcstat_ptracer25_sd         =   2.9156085150527991E-03
(PID.TID 0000.0001) %MON trcstat_ptracer25_del2       =   2.0453293425888214E-05
(PID.TID 0000.0001) %MON trcstat_ptracer26_max        =   1.5587335435700904E+00
(PID.TID 0000.0001) %MON trcstat_ptracer26_min        =   1.4744444111175574E-27
(PID.TID 0000.0001) %MON trcstat_ptracer26_mean       =   1.6674108892951272E-02
(PID.TID 0000.0001) %MON trcstat_ptracer26_sd         =   8.6454090708069531E-02
(PID.TID 0000.0001) %MON trcstat_ptracer26_del2       =   8.7217746715734343E-04
(PID.TID 0000.0001) %MON trcstat_ptracer27_max        =   6.6453940256685053E-03
(PID.TID 0000.0001) %MON trcstat_ptracer27_min        =   1.5075652148084933E-12
(PID.TID 0000.0001) %MON trcstat_ptracer27_mean       =   1.4337204797648856E-05
(PID.TID 0000.0001) %MON trcstat_ptracer27_sd         =   2.1471781427330637E-04
(PID.TID 0000.0001) %MON trcstat_ptracer27_del2       =   5.4761746165635475E-06
(PID.TID 0000.0001) %MON trcstat_ptracer28_max        =   6.5011471675690885E-03
(PID.TID 0000.0001) %MON trcstat_ptracer28_min        =  -6.5388706433223866E-17
(PID.TID 0000.0001) %MON trcstat_ptracer28_mean       =   1.3941174810445635E-05
(PID.TID 0000.0001) %MON trcstat_ptracer28_sd         =   2.1087944351739111E-04
(PID.TID 0000.0001) %MON trcstat_ptracer28_del2       =   5.4555685212556739E-06
(PID.TID 0000.0001) %MON trcstat_ptracer29_max        =   6.3079077720712131E-03
(PID.TID 0000.0001) %MON trcstat_ptracer29_min        =  -2.4743485321104396E-19
(PID.TID 0000.0001) %MON trcstat_ptracer29_mean       =   1.2797050981021228E-05
(PID.TID 0000.0001) %MON trcstat_ptracer29_sd         =   1.9978421905645575E-04
(PID.TID 0000.0001) %MON trcstat_ptracer29_del2       =   5.5534304838394154E-06
(PID.TID 0000.0001) %MON trcstat_ptracer30_max        =   6.7217731655173111E-03
(PID.TID 0000.0001) %MON trcstat_ptracer30_min        =   6.8262305957374286E-49
(PID.TID 0000.0001) %MON trcstat_ptracer30_mean       =   1.5021203727896053E-05
(PID.TID 0000.0001) %MON trcstat_ptracer30_sd         =   2.1680772246854461E-04
(PID.TID 0000.0001) %MON trcstat_ptracer30_del2       =   5.4331304444194715E-06
(PID.TID 0000.0001) %MON trcstat_ptracer31_max        =   6.3899764648936786E-03
(PID.TID 0000.0001) %MON trcstat_ptracer31_min        =  -3.1177634526337212E-15
(PID.TID 0000.0001) %MON trcstat_ptracer31_mean       =   1.2907942419804769E-05
(PID.TID 0000.0001) %MON trcstat_ptracer31_sd         =   2.0160658862483017E-04
(PID.TID 0000.0001) %MON trcstat_ptracer31_del2       =   5.5661832648558849E-06
(PID.TID 0000.0001) %MON trcstat_ptracer32_max        =   6.7217731627212595E-03
(PID.TID 0000.0001) %MON trcstat_ptracer32_min        =  -7.0632941367040027E-17
(PID.TID 0000.0001) %MON trcstat_ptracer32_mean       =   1.5005618893854433E-05
(PID.TID 0000.0001) %MON trcstat_ptracer32_sd         =   2.1655231297281285E-04
(PID.TID 0000.0001) %MON trcstat_ptracer32_del2       =   5.4376125124706444E-06
(PID.TID 0000.0001) %MON trcstat_ptracer33_max        =   6.8822224894979096E-03
(PID.TID 0000.0001) %MON trcstat_ptracer33_min        =  -4.6577411527762805E-34
(PID.TID 0000.0001) %MON trcstat_ptracer33_mean       =   1.5618113173810067E-05
(PID.TID 0000.0001) %MON trcstat_ptracer33_sd         =   2.2076132805251648E-04
(PID.TID 0000.0001) %MON trcstat_ptracer33_del2       =   5.4576133369594928E-06
(PID.TID 0000.0001) %MON trcstat_ptracer34_max        =   8.5229750331184718E-03
(PID.TID 0000.0001) %MON trcstat_ptracer34_min        =   1.1859639873714682E-48
(PID.TID 0000.0001) %MON trcstat_ptracer34_mean       =   2.1139053175049825E-05
(PID.TID 0000.0001) %MON trcstat_ptracer34_sd         =   2.7209971521789515E-04
(PID.TID 0000.0001) %MON trcstat_ptracer34_del2       =   5.2081351554372764E-06
(PID.TID 0000.0001) %MON trcstat_ptracer35_max        =   3.3853283690363378E-01
(PID.TID 0000.0001) %MON trcstat_ptracer35_min        =   8.9061263265686592E-31
(PID.TID 0000.0001) %MON trcstat_ptracer35_mean       =   2.2384466159874857E-03
(PID.TID 0000.0001) %MON trcstat_ptracer35_sd         =   1.6211347947531263E-02
(PID.TID 0000.0001) %MON trcstat_ptracer35_del2       =   1.2114669349696514E-04
(PID.TID 0000.0001) %MON trcstat_ptracer36_max        =   6.7217731627245616E-03
(PID.TID 0000.0001) %MON trcstat_ptracer36_min        =  -8.5063446367294955E-17
(PID.TID 0000.0001) %MON trcstat_ptracer36_mean       =   1.5005618692215609E-05
(PID.TID 0000.0001) %MON trcstat_ptracer36_sd         =   2.1655231298777620E-04
(PID.TID 0000.0001) %MON trcstat_ptracer36_del2       =   5.4376125124478017E-06
(PID.TID 0000.0001) %MON trcstat_ptracer37_max        =   6.7317343919595938E-03
(PID.TID 0000.0001) %MON trcstat_ptracer37_min        =  -5.8380408965737601E-16
(PID.TID 0000.0001) %MON trcstat_ptracer37_mean       =   1.5039873680722813E-05
(PID.TID 0000.0001) %MON trcstat_ptracer37_sd         =   2.1690776827403607E-04
(PID.TID 0000.0001) %MON trcstat_ptracer37_del2       =   5.4333275151246258E-06
(PID.TID 0000.0001) %MON trcstat_ptracer38_max        =   6.3895095117675205E-03
(PID.TID 0000.0001) %MON trcstat_ptracer38_min        =   8.9140834056280193E-15
(PID.TID 0000.0001) %MON trcstat_ptracer38_mean       =   1.2982062830736919E-05
(PID.TID 0000.0001) %MON trcstat_ptracer38_sd         =   2.0110079503706237E-04
(PID.TID 0000.0001) %MON trcstat_ptracer38_del2       =   5.5789298063114260E-06
(PID.TID 0000.0001) %MON trcstat_ptracer39_max        =   1.2445313719255967E-01
(PID.TID 0000.0001) %MON trcstat_ptracer39_min        =   6.4998856947488390E-12
(PID.TID 0000.0001) %MON trcstat_ptracer39_mean       =   2.7551557898258042E-03
(PID.TID 0000.0001) %MON trcstat_ptracer39_sd         =   9.8865218577903202E-03
(PID.TID 0000.0001) %MON trcstat_ptracer39_del2       =   7.7236164004925177E-05
(PID.TID 0000.0001) %MON trcstat_ptracer40_max        =   6.7217732412152608E-03
(PID.TID 0000.0001) %MON trcstat_ptracer40_min        =  -1.6270224190469722E-29
(PID.TID 0000.0001) %MON trcstat_ptracer40_mean       =   1.5007906442523739E-05
(PID.TID 0000.0001) %MON trcstat_ptracer40_sd         =   2.1655215528492433E-04
(PID.TID 0000.0001) %MON trcstat_ptracer40_del2       =   5.4376126039757501E-06
(PID.TID 0000.0001) %MON trcstat_ptracer41_max        =   1.2588448197841709E-02
(PID.TID 0000.0001) %MON trcstat_ptracer41_min        =   1.6924005685178399E-48
(PID.TID 0000.0001) %MON trcstat_ptracer41_mean       =   4.4466397894100485E-05
(PID.TID 0000.0001) %MON trcstat_ptracer41_sd         =   4.7197807088422011E-04
(PID.TID 0000.0001) %MON trcstat_ptracer41_del2       =   5.5135721447218218E-06
(PID.TID 0000.0001) %MON trcstat_ptracer42_max        =   6.5729734392617539E-03
(PID.TID 0000.0001) %MON trcstat_ptracer42_min        =  -7.4254231104927040E-19
(PID.TID 0000.0001) %MON trcstat_ptracer42_mean       =   1.4064741885326541E-05
(PID.TID 0000.0001) %MON trcstat_ptracer42_sd         =   2.1295683594599178E-04
(PID.TID 0000.0001) %MON trcstat_ptracer42_del2       =   5.4671497875532726E-06
(PID.TID 0000.0001) %MON trcstat_ptracer43_max        =   6.7262484334567312E-03
(PID.TID 0000.0001) %MON trcstat_ptracer43_min        =  -6.2149116776262800E-17
(PID.TID 0000.0001) %MON trcstat_ptracer43_mean       =   1.5021020821360087E-05
(PID.TID 0000.0001) %MON trcstat_ptracer43_sd         =   2.1672202123870996E-04
(PID.TID 0000.0001) %MON trcstat_ptracer43_del2       =   5.4370855216886262E-06
(PID.TID 0000.0001) %MON trcstat_ptracer44_max        =   6.7262484339065667E-03
(PID.TID 0000.0001) %MON trcstat_ptracer44_min        =  -9.3085989770509490E-33
(PID.TID 0000.0001) %MON trcstat_ptracer44_mean       =   1.5021074312598366E-05
(PID.TID 0000.0001) %MON trcstat_ptracer44_sd         =   2.1672201746745034E-04
(PID.TID 0000.0001) %MON trcstat_ptracer44_del2       =   5.4370855245894532E-06
(PID.TID 0000.0001) %MON trcstat_ptracer45_max        =   6.7263188419913128E-03
(PID.TID 0000.0001) %MON trcstat_ptracer45_min        =   9.3912676347491106E-49
(PID.TID 0000.0001) %MON trcstat_ptracer45_mean       =   1.6634608156252910E-05
(PID.TID 0000.0001) %MON trcstat_ptracer45_sd         =   2.1669660102600975E-04
(PID.TID 0000.0001) %MON trcstat_ptracer45_del2       =   5.4373902082343476E-06
(PID.TID 0000.0001) %MON trcstat_ptracer46_max        =   6.8003299454615354E-03
(PID.TID 0000.0001) %MON trcstat_ptracer46_min        =   1.1527216058139664E-48
(PID.TID 0000.0001) %MON trcstat_ptracer46_mean       =   1.9790369724277519E-05
(PID.TID 0000.0001) %MON trcstat_ptracer46_sd         =   2.7184868330553340E-04
(PID.TID 0000.0001) %MON trcstat_ptracer46_del2       =   4.9287186687546821E-06
(PID.TID 0000.0001) %MON trcstat_ptracer47_max        =   6.7385417268560951E-03
(PID.TID 0000.0001) %MON trcstat_ptracer47_min        =   1.2000000925822579E-48
(PID.TID 0000.0001) %MON trcstat_ptracer47_mean       =   1.6903302700570956E-05
(PID.TID 0000.0001) %MON trcstat_ptracer47_sd         =   2.1787264651536349E-04
(PID.TID 0000.0001) %MON trcstat_ptracer47_del2       =   5.4286590868542126E-06
(PID.TID 0000.0001) %MON trcstat_ptracer48_max        =   6.9388676688567795E-03
(PID.TID 0000.0001) %MON trcstat_ptracer48_min        =   5.4024716030445758E-48
(PID.TID 0000.0001) %MON trcstat_ptracer48_mean       =   1.7633220514532668E-05
(PID.TID 0000.0001) %MON trcstat_ptracer48_sd         =   2.5785732580038050E-04
(PID.TID 0000.0001) %MON trcstat_ptracer48_del2       =   5.0282728813073298E-06
(PID.TID 0000.0001) %MON trcstat_ptracer49_max        =   6.3079077722937608E-03
(PID.TID 0000.0001) %MON trcstat_ptracer49_min        =  -3.0901749497095163E-15
(PID.TID 0000.0001) %MON trcstat_ptracer49_mean       =   1.2797050961614553E-05
(PID.TID 0000.0001) %MON trcstat_ptracer49_sd         =   1.9978421906651056E-04
(PID.TID 0000.0001) %MON trcstat_ptracer49_del2       =   5.5534304837700967E-06
(PID.TID 0000.0001) %MON trcstat_ptracer50_max        =   6.7262484335711605E-03
(PID.TID 0000.0001) %MON trcstat_ptracer50_min        =  -5.1039529408168133E-16
(PID.TID 0000.0001) %MON trcstat_ptracer50_mean       =   1.5021018577584291E-05
(PID.TID 0000.0001) %MON trcstat_ptracer50_sd         =   2.1672202140895060E-04
(PID.TID 0000.0001) %MON trcstat_ptracer50_del2       =   5.4370855213962186E-06
(PID.TID 0000.0001) %MON trcstat_ptracer51_max        =   6.3079077722721097E-03
(PID.TID 0000.0001) %MON trcstat_ptracer51_min        =  -2.5597943080957069E-21
(PID.TID 0000.0001) %MON trcstat_ptracer51_mean       =   1.2797050999451156E-05
(PID.TID 0000.0001) %MON trcstat_ptracer51_sd         =   1.9978421906379355E-04
(PID.TID 0000.0001) %MON trcstat_ptracer51_del2       =   5.5534304837706854E-06
(PID.TID 0000.0001) %MON trcstat_ptracer52_max        =   3.5111506034748032E+00
(PID.TID 0000.0001) %MON trcstat_ptracer52_min        =   5.3514325355027716E-39
(PID.TID 0000.0001) %MON trcstat_ptracer52_mean       =   3.9824886230784874E-02
(PID.TID 0000.0001) %MON trcstat_ptracer52_sd         =   2.2106568489579514E-01
(PID.TID 0000.0001) %MON trcstat_ptracer52_del2       =   1.1309355946551504E-03
(PID.TID 0000.0001) %MON trcstat_ptracer53_max        =   6.3789675856398595E-02
(PID.TID 0000.0001) %MON trcstat_ptracer53_min        =   1.9529040886355766E-42
(PID.TID 0000.0001) %MON trcstat_ptracer53_mean       =   1.1558677039078993E-04
(PID.TID 0000.0001) %MON trcstat_ptracer53_sd         =   1.1524919721808830E-03
(PID.TID 0000.0001) %MON trcstat_ptracer53_del2       =   1.0708966758080905E-05
(PID.TID 0000.0001) %MON trcstat_ptracer54_max        =   1.2980636206499979E-02
(PID.TID 0000.0001) %MON trcstat_ptracer54_min        =   1.1916142242221907E-31
(PID.TID 0000.0001) %MON trcstat_ptracer54_mean       =   2.6451915315090294E-05
(PID.TID 0000.0001) %MON trcstat_ptracer54_sd         =   3.9986047390446004E-04
(PID.TID 0000.0001) %MON trcstat_ptracer54_del2       =   5.3310076189973396E-06
(PID.TID 0000.0001) %MON trcstat_ptracer55_max        =   9.3840156036937433E-03
(PID.TID 0000.0001) %MON trcstat_ptracer55_min        =   1.1755349320642894E-48
(PID.TID 0000.0001) %MON trcstat_ptracer55_mean       =   2.4632945976310371E-05
(PID.TID 0000.0001) %MON trcstat_ptracer55_sd         =   3.0828401133036680E-04
(PID.TID 0000.0001) %MON trcstat_ptracer55_del2       =   4.9950535450484852E-06
(PID.TID 0000.0001) %MON trcstat_ptracer56_max        =   9.2396601172557609E-03
(PID.TID 0000.0001) %MON trcstat_ptracer56_min        =  -7.4390681946999430E-30
(PID.TID 0000.0001) %MON trcstat_ptracer56_mean       =   2.4864961769112238E-05
(PID.TID 0000.0001) %MON trcstat_ptracer56_sd         =   3.5332630552449291E-04
(PID.TID 0000.0001) %MON trcstat_ptracer56_del2       =   4.7526635778821820E-06
(PID.TID 0000.0001) %MON trcstat_ptracer57_max        =   8.3124270897652064E-03
(PID.TID 0000.0001) %MON trcstat_ptracer57_min        =   7.9745551132092934E-28
(PID.TID 0000.0001) %MON trcstat_ptracer57_mean       =   1.8337506616807520E-05
(PID.TID 0000.0001) %MON trcstat_ptracer57_sd         =   2.8768207136065495E-04
(PID.TID 0000.0001) %MON trcstat_ptracer57_del2       =   4.9595264802963506E-06
(PID.TID 0000.0001) %MON trcstat_ptracer58_max        =   8.3553076696535351E-03
(PID.TID 0000.0001) %MON trcstat_ptracer58_min        =   1.1913586842544646E-48
(PID.TID 0000.0001) %MON trcstat_ptracer58_mean       =   2.0624063353568059E-05
(PID.TID 0000.0001) %MON trcstat_ptracer58_sd         =   2.6630080547218100E-04
(PID.TID 0000.0001) %MON trcstat_ptracer58_del2       =   5.2704002714335718E-06
(PID.TID 0000.0001) %MON trcstat_ptracer59_max        =   8.1262320833911349E-03
(PID.TID 0000.0001) %MON trcstat_ptracer59_min        =   1.1494844557666253E-48
(PID.TID 0000.0001) %MON trcstat_ptracer59_mean       =   2.9188798311704281E-05
(PID.TID 0000.0001) %MON trcstat_ptracer59_sd         =   3.5634869869475769E-04
(PID.TID 0000.0001) %MON trcstat_ptracer59_del2       =   4.6284060207330653E-06
(PID.TID 0000.0001) %MON trcstat_ptracer60_max        =   5.5493391736537015E-02
(PID.TID 0000.0001) %MON trcstat_ptracer60_min        =  -2.1475437762931384E-22
(PID.TID 0000.0001) %MON trcstat_ptracer60_mean       =   2.1871093055108828E-04
(PID.TID 0000.0001) %MON trcstat_ptracer60_sd         =   2.0491937381925331E-03
(PID.TID 0000.0001) %MON trcstat_ptracer60_del2       =   2.7257359979947828E-05
(PID.TID 0000.0001) %MON trcstat_ptracer61_max        =   6.5064488681321518E-03
(PID.TID 0000.0001) %MON trcstat_ptracer61_min        =   4.9298940783111308E-16
(PID.TID 0000.0001) %MON trcstat_ptracer61_mean       =   1.3958080197230678E-05
(PID.TID 0000.0001) %MON trcstat_ptracer61_sd         =   2.1104873851554375E-04
(PID.TID 0000.0001) %MON trcstat_ptracer61_del2       =   5.4517987108773540E-06
(PID.TID 0000.0001) %MON trcstat_ptracer62_max        =   6.7317343918424479E-03
(PID.TID 0000.0001) %MON trcstat_ptracer62_min        =  -6.1481025941139721E-17
(PID.TID 0000.0001) %MON trcstat_ptracer62_mean       =   1.5039876751215722E-05
(PID.TID 0000.0001) %MON trcstat_ptracer62_sd         =   2.1690776804259449E-04
(PID.TID 0000.0001) %MON trcstat_ptracer62_del2       =   5.4333275155284936E-06
(PID.TID 0000.0001) %MON trcstat_ptracer63_max        =   6.3079077722421944E-03
(PID.TID 0000.0001) %MON trcstat_ptracer63_min        =  -3.1674843480461544E-15
(PID.TID 0000.0001) %MON trcstat_ptracer63_mean       =   1.2798107468245266E-05
(PID.TID 0000.0001) %MON trcstat_ptracer63_sd         =   1.9980066237436614E-04
(PID.TID 0000.0001) %MON trcstat_ptracer63_del2       =   5.5530229223805905E-06
(PID.TID 0000.0001) %MON trcstat_ptracer64_max        =   6.3886609309831257E-03
(PID.TID 0000.0001) %MON trcstat_ptracer64_min        =  -7.6689803183246453E-23
(PID.TID 0000.0001) %MON trcstat_ptracer64_mean       =   1.2970194813673512E-05
(PID.TID 0000.0001) %MON trcstat_ptracer64_sd         =   2.0259311089346248E-04
(PID.TID 0000.0001) %MON trcstat_ptracer64_del2       =   5.5572851364360826E-06
(PID.TID 0000.0001) %MON trcstat_ptracer65_max        =   6.7317343917127860E-03
(PID.TID 0000.0001) %MON trcstat_ptracer65_min        =  -7.0363779823151999E-17
(PID.TID 0000.0001) %MON trcstat_ptracer65_mean       =   1.5039874258905668E-05
(PID.TID 0000.0001) %MON trcstat_ptracer65_sd         =   2.1690776821254852E-04
(PID.TID 0000.0001) %MON trcstat_ptracer65_del2       =   5.4333275153075527E-06
(PID.TID 0000.0001) %MON trcstat_ptracer66_max        =   6.7262484335805211E-03
(PID.TID 0000.0001) %MON trcstat_ptracer66_min        =  -3.2070499543220033E-16
(PID.TID 0000.0001) %MON trcstat_ptracer66_mean       =   1.5021018579541987E-05
(PID.TID 0000.0001) %MON trcstat_ptracer66_sd         =   2.1672202140954095E-04
(PID.TID 0000.0001) %MON trcstat_ptracer66_del2       =   5.4370855213934802E-06
(PID.TID 0000.0001) %MON trcstat_ptracer67_max        =   1.3807308506515643E-02
(PID.TID 0000.0001) %MON trcstat_ptracer67_min        =   9.3892086656118676E-29
(PID.TID 0000.0001) %MON trcstat_ptracer67_mean       =   3.0118955242229987E-05
(PID.TID 0000.0001) %MON trcstat_ptracer67_sd         =   4.2187921561039754E-04
(PID.TID 0000.0001) %MON trcstat_ptracer67_del2       =   5.5342588829131890E-06
(PID.TID 0000.0001) %MON trcstat_ptracer68_max        =   6.7464608495261822E-03
(PID.TID 0000.0001) %MON trcstat_ptracer68_min        =   1.1981316840022591E-48
(PID.TID 0000.0001) %MON trcstat_ptracer68_mean       =   1.5053563489984792E-05
(PID.TID 0000.0001) %MON trcstat_ptracer68_sd         =   2.1707840553347637E-04
(PID.TID 0000.0001) %MON trcstat_ptracer68_del2       =   5.4352903057561549E-06
(PID.TID 0000.0001) %MON trcstat_ptracer69_max        =   2.3140728800289616E+00
(PID.TID 0000.0001) %MON trcstat_ptracer69_min        =  -4.6289171450113006E-17
(PID.TID 0000.0001) %MON trcstat_ptracer69_mean       =   7.5251299719595072E-02
(PID.TID 0000.0001) %MON trcstat_ptracer69_sd         =   2.0213735940281854E-01
(PID.TID 0000.0001) %MON trcstat_ptracer69_del2       =   1.2119552490063752E-03
(PID.TID 0000.0001) %MON trcstat_ptracer70_max        =   6.5064483408752679E-03
(PID.TID 0000.0001) %MON trcstat_ptracer70_min        =  -1.6034012013721475E-16
(PID.TID 0000.0001) %MON trcstat_ptracer70_mean       =   1.3957210627428534E-05
(PID.TID 0000.0001) %MON trcstat_ptracer70_sd         =   2.1104875373407686E-04
(PID.TID 0000.0001) %MON trcstat_ptracer70_del2       =   5.4517989469280629E-06
(PID.TID 0000.0001) %MON trcstat_ptracer71_max        =   6.5095401312157027E-03
(PID.TID 0000.0001) %MON trcstat_ptracer71_min        =   5.9761376040130242E-35
(PID.TID 0000.0001) %MON trcstat_ptracer71_mean       =   1.6652136226500853E-05
(PID.TID 0000.0001) %MON trcstat_ptracer71_sd         =   2.1885616154148062E-04
(PID.TID 0000.0001) %MON trcstat_ptracer71_del2       =   5.3487727855747061E-06
(PID.TID 0000.0001) %MON trcstat_ptracer72_max        =   6.3027690451800296E-03
(PID.TID 0000.0001) %MON trcstat_ptracer72_min        =  -2.9403222279653930E-17
(PID.TID 0000.0001) %MON trcstat_ptracer72_mean       =   1.2782984067999519E-05
(PID.TID 0000.0001) %MON trcstat_ptracer72_sd         =   1.9962507655604288E-04
(PID.TID 0000.0001) %MON trcstat_ptracer72_del2       =   5.5570625414517295E-06
(PID.TID 0000.0001) %MON trcstat_ptracer73_max        =   6.2985765634934717E-03
(PID.TID 0000.0001) %MON trcstat_ptracer73_min        =   8.1375276380539136E-27
(PID.TID 0000.0001) %MON trcstat_ptracer73_mean       =   1.2771003618318714E-05
(PID.TID 0000.0001) %MON trcstat_ptracer73_sd         =   1.9947378115682760E-04
(PID.TID 0000.0001) %MON trcstat_ptracer73_del2       =   5.5575720583272648E-06
(PID.TID 0000.0001) %MON trcstat_ptracer74_max        =   6.3079077314678643E-03
(PID.TID 0000.0001) %MON trcstat_ptracer74_min        =  -1.6404181500134383E-15
(PID.TID 0000.0001) %MON trcstat_ptracer74_mean       =   1.2807177877520521E-05
(PID.TID 0000.0001) %MON trcstat_ptracer74_sd         =   1.9997198988697506E-04
(PID.TID 0000.0001) %MON trcstat_ptracer74_del2       =   5.5527072387401149E-06
(PID.TID 0000.0001) %MON trcstat_ptracer75_max        =   1.1446712667233642E+01
(PID.TID 0000.0001) %MON trcstat_ptracer75_min        =   3.9023506110225070E-13
(PID.TID 0000.0001) %MON trcstat_ptracer75_mean       =   8.1141233268619595E-01
(PID.TID 0000.0001) %MON trcstat_ptracer75_sd         =   1.2425189833179038E+00
(PID.TID 0000.0001) %MON trcstat_ptracer75_del2       =   7.4793923604311186E-03
(PID.TID 0000.0001) %MON trcstat_ptracer76_max        =   6.8085096441375939E-03
(PID.TID 0000.0001) %MON trcstat_ptracer76_min        =  -1.7778578627798854E-21
(PID.TID 0000.0001) %MON trcstat_ptracer76_mean       =   1.5152675089089748E-05
(PID.TID 0000.0001) %MON trcstat_ptracer76_sd         =   2.1905994001642962E-04
(PID.TID 0000.0001) %MON trcstat_ptracer76_del2       =   5.4516141620947287E-06
(PID.TID 0000.0001) %MON trcstat_ptracer77_max        =   6.7496001285428124E-03
(PID.TID 0000.0001) %MON trcstat_ptracer77_min        =   1.0473073410823599E-48
(PID.TID 0000.0001) %MON trcstat_ptracer77_mean       =   1.6991148587102424E-05
(PID.TID 0000.0001) %MON trcstat_ptracer77_sd         =   2.4203513895172009E-04
(PID.TID 0000.0001) %MON trcstat_ptracer77_del2       =   5.1545439518297207E-06
(PID.TID 0000.0001) %MON trcstat_ptracer78_max        =   1.7678872638106795E-02
(PID.TID 0000.0001) %MON trcstat_ptracer78_min        =  -1.1683768933997078E-39
(PID.TID 0000.0001) %MON trcstat_ptracer78_mean       =   6.2569302268741304E-05
(PID.TID 0000.0001) %MON trcstat_ptracer78_sd         =   6.2909759277908093E-04
(PID.TID 0000.0001) %MON trcstat_ptracer78_del2       =   5.5012994399703274E-06
(PID.TID 0000.0001) %MON trcstat_ptracer79_max        =   2.5235126322630261E+00
(PID.TID 0000.0001) %MON trcstat_ptracer79_min        =   2.6023322289261276E-33
(PID.TID 0000.0001) %MON trcstat_ptracer79_mean       =   1.5946530782374804E-02
(PID.TID 0000.0001) %MON trcstat_ptracer79_sd         =   9.9777387027864248E-02
(PID.TID 0000.0001) %MON trcstat_ptracer79_del2       =   5.8255128391536144E-04
(PID.TID 0000.0001) %MON trcstat_ptracer80_max        =   2.3327533295803317E-02
(PID.TID 0000.0001) %MON trcstat_ptracer80_min        =  -4.3001544463898368E-26
(PID.TID 0000.0001) %MON trcstat_ptracer80_mean       =   6.5099693876288778E-05
(PID.TID 0000.0001) %MON trcstat_ptracer80_sd         =   7.9799924868844449E-04
(PID.TID 0000.0001) %MON trcstat_ptracer80_del2       =   8.7699513962953792E-06
(PID.TID 0000.0001) %MON trcstat_ptracer81_max        =   6.8729756287311808E-03
(PID.TID 0000.0001) %MON trcstat_ptracer81_min        =   1.0115072701975462E-48
(PID.TID 0000.0001) %MON trcstat_ptracer81_mean       =   1.5258283489011205E-05
(PID.TID 0000.0001) %MON trcstat_ptracer81_sd         =   2.1981333217770569E-04
(PID.TID 0000.0001) %MON trcstat_ptracer81_del2       =   5.4673960048661004E-06
(PID.TID 0000.0001) %MON trcstat_ptracer82_max        =   6.3079077722971574E-03
(PID.TID 0000.0001) %MON trcstat_ptracer82_min        =  -3.0893931329905209E-15
(PID.TID 0000.0001) %MON trcstat_ptracer82_mean       =   1.2797050961633208E-05
(PID.TID 0000.0001) %MON trcstat_ptracer82_sd         =   1.9978421906672689E-04
(PID.TID 0000.0001) %MON trcstat_ptracer82_del2       =   5.5534304837680969E-06
(PID.TID 0000.0001) %MON trcstat_ptracer83_max        =   6.7392924402154631E-03
(PID.TID 0000.0001) %MON trcstat_ptracer83_min        =  -2.2534293845650168E-16
(PID.TID 0000.0001) %MON trcstat_ptracer83_mean       =   1.5102723458645157E-05
(PID.TID 0000.0001) %MON trcstat_ptracer83_sd         =   2.1790305149434525E-04
(PID.TID 0000.0001) %MON trcstat_ptracer83_del2       =   5.4281328893477120E-06
(PID.TID 0000.0001) %MON trcstat_ptracer84_max        =   6.8135131083896976E-03
(PID.TID 0000.0001) %MON trcstat_ptracer84_min        =  -1.3626434516072474E-16
(PID.TID 0000.0001) %MON trcstat_ptracer84_mean       =   1.5222774189846758E-05
(PID.TID 0000.0001) %MON trcstat_ptracer84_sd         =   2.1973999064174389E-04
(PID.TID 0000.0001) %MON trcstat_ptracer84_del2       =   5.4361616049572292E-06
(PID.TID 0000.0001) %MON trcstat_ptracer85_max        =   7.5262693603264390E+00
(PID.TID 0000.0001) %MON trcstat_ptracer85_min        =   5.5478644720982438E-28
(PID.TID 0000.0001) %MON trcstat_ptracer85_mean       =   4.4051284190065498E-01
(PID.TID 0000.0001) %MON trcstat_ptracer85_sd         =   9.5491488020342019E-01
(PID.TID 0000.0001) %MON trcstat_ptracer85_del2       =   3.5980153259367619E-03
(PID.TID 0000.0001) %MON trcstat_ptracer86_max        =   6.6378262905971361E-03
(PID.TID 0000.0001) %MON trcstat_ptracer86_min        =  -1.6307328206467865E-16
(PID.TID 0000.0001) %MON trcstat_ptracer86_mean       =   1.4170893099228752E-05
(PID.TID 0000.0001) %MON trcstat_ptracer86_sd         =   2.1456996535572332E-04
(PID.TID 0000.0001) %MON trcstat_ptracer86_del2       =   5.4764546436980347E-06
(PID.TID 0000.0001) %MON trcstat_ptracer87_max        =   2.9256676011709271E-02
(PID.TID 0000.0001) %MON trcstat_ptracer87_min        =   2.8392478560137321E-22
(PID.TID 0000.0001) %MON trcstat_ptracer87_mean       =   6.7020919346973067E-05
(PID.TID 0000.0001) %MON trcstat_ptracer87_sd         =   8.6387980227263517E-04
(PID.TID 0000.0001) %MON trcstat_ptracer87_del2       =   1.1916271335603919E-05
(PID.TID 0000.0001) %MON trcstat_ptracer88_max        =   3.8899684576017599E-02
(PID.TID 0000.0001) %MON trcstat_ptracer88_min        =   1.0759003997870598E-40
(PID.TID 0000.0001) %MON trcstat_ptracer88_mean       =   1.9750690932832245E-04
(PID.TID 0000.0001) %MON trcstat_ptracer88_sd         =   1.6309722520576619E-03
(PID.TID 0000.0001) %MON trcstat_ptracer88_del2       =   1.2122893556441150E-05
(PID.TID 0000.0001) %MON trcstat_ptracer89_max        =   8.8316141884287580E-01
(PID.TID 0000.0001) %MON trcstat_ptracer89_min        =   4.0868853650784353E-31
(PID.TID 0000.0001) %MON trcstat_ptracer89_mean       =   1.2890763360541412E-02
(PID.TID 0000.0001) %MON trcstat_ptracer89_sd         =   5.1060246124089562E-02
(PID.TID 0000.0001) %MON trcstat_ptracer89_del2       =   4.0699967793202531E-04
(PID.TID 0000.0001) %MON trcstat_ptracer90_max        =   6.3079085273183236E-03
(PID.TID 0000.0001) %MON trcstat_ptracer90_min        =   1.4894826184575850E-26
(PID.TID 0000.0001) %MON trcstat_ptracer90_mean       =   1.2797192577000632E-05
(PID.TID 0000.0001) %MON trcstat_ptracer90_sd         =   1.9978425987484855E-04
(PID.TID 0000.0001) %MON trcstat_ptracer90_del2       =   5.5534302313968850E-06
(PID.TID 0000.0001) %MON trcstat_ptracer91_max        =   6.7217731628639778E-03
(PID.TID 0000.0001) %MON trcstat_ptracer91_min        =  -5.0819751305603917E-16
(PID.TID 0000.0001) %MON trcstat_ptracer91_mean       =   1.5005618586765264E-05
(PID.TID 0000.0001) %MON trcstat_ptracer91_sd         =   2.1655231300625851E-04
(PID.TID 0000.0001) %MON trcstat_ptracer91_del2       =   5.4376125123875200E-06
(PID.TID 0000.0001) %MON trcstat_ptracer92_max        =   6.3079077722048094E-03
(PID.TID 0000.0001) %MON trcstat_ptracer92_min        =  -3.2238626472250100E-15
(PID.TID 0000.0001) %MON trcstat_ptracer92_mean       =   1.2797050961357253E-05
(PID.TID 0000.0001) %MON trcstat_ptracer92_sd         =   1.9978421906280831E-04
(PID.TID 0000.0001) %MON trcstat_ptracer92_del2       =   5.5534304838055086E-06
(PID.TID 0000.0001) %MON trcstat_ptracer93_max        =   9.7122505270212142E-02
(PID.TID 0000.0001) %MON trcstat_ptracer93_min        =   1.2000000000826996E-48
(PID.TID 0000.0001) %MON trcstat_ptracer93_mean       =   1.8883761103595826E-04
(PID.TID 0000.0001) %MON trcstat_ptracer93_sd         =   1.8975646586387234E-03
(PID.TID 0000.0001) %MON trcstat_ptracer93_del2       =   1.5900958756646659E-05
(PID.TID 0000.0001) %MON trcstat_ptracer94_max        =   8.8249420206099431E-03
(PID.TID 0000.0001) %MON trcstat_ptracer94_min        =  -1.2171256198471661E-21
(PID.TID 0000.0001) %MON trcstat_ptracer94_mean       =   2.4701903477332976E-05
(PID.TID 0000.0001) %MON trcstat_ptracer94_sd         =   3.4474454376084485E-04
(PID.TID 0000.0001) %MON trcstat_ptracer94_del2       =   4.7249033440885087E-06
(PID.TID 0000.0001) %MON trcstat_ptracer95_max        =   6.4968222417891106E-03
(PID.TID 0000.0001) %MON trcstat_ptracer95_min        =  -1.1859402305708898E-19
(PID.TID 0000.0001) %MON trcstat_ptracer95_mean       =   1.3927674823409545E-05
(PID.TID 0000.0001) %MON trcstat_ptracer95_sd         =   2.1071820221524231E-04
(PID.TID 0000.0001) %MON trcstat_ptracer95_del2       =   5.4561078465625451E-06
(PID.TID 0000.0001) %MON trcstat_ptracer96_max        =   8.3728096715223477E-01
(PID.TID 0000.0001) %MON trcstat_ptracer96_min        =   8.2541695476436195E-31
(PID.TID 0000.0001) %MON trcstat_ptracer96_mean       =   5.6492332282678921E-02
(PID.TID 0000.0001) %MON trcstat_ptracer96_sd         =   1.3273614961550878E-01
(PID.TID 0000.0001) %MON trcstat_ptracer96_del2       =   4.3206948919124907E-04
(PID.TID 0000.0001) %MON trcstat_ptracer97_max        =   1.0114240531044640E+01
(PID.TID 0000.0001) %MON trcstat_ptracer97_min        =   1.0808277399726046E-20
(PID.TID 0000.0001) %MON trcstat_ptracer97_mean       =   2.0405764498194431E-01
(PID.TID 0000.0001) %MON trcstat_ptracer97_sd         =   8.9887036983777424E-01
(PID.TID 0000.0001) %MON trcstat_ptracer97_del2       =   3.8642488843281526E-03
(PID.TID 0000.0001) // =======================================================
(PID.TID 0000.0001) // End MONITOR ptracers field statistics
(PID.TID 0000.0001) // =======================================================
 Computing Diagnostic #    210  TRAC01       Counter:       1   Parms: SMR     MR      
 Computing Diagnostic #    223  TRAC02       Counter:       1   Parms: SMR     MR      
 Computing Diagnostic #    236  TRAC03       Counter:       1   Parms: SMR     MR      
 Computing Diagnostic #    249  TRAC04       Counter:       1   Parms: SMR     MR      
 Computing Diagnostic #    262  TRAC05       Counter:       1   Parms: SMR     MR      
 Computing Diagnostic #    275  TRAC06       Counter:       1   Parms: SMR     MR      
 Computing Diagnostic #    288  TRAC07       Counter:       1   Parms: SMR     MR      
 Computing Diagnostic #    301  TRAC08       Counter:       1   Parms: SMR     MR      
 Computing Diagnostic #    314  TRAC09       Counter:       1   Parms: SMR     MR      
 Computing Diagnostic #    327  TRAC10       Counter:       1   Parms: SMR     MR      
 Computing Diagnostic #    340  TRAC11       Counter:       1   Parms: SMR     MR      
 Computing Diagnostic #    353  TRAC12       Counter:       1   Parms: SMR     MR      
 Computing Diagnostic #    366  TRAC13       Counter:       1   Parms: SMR     MR      
 Computing Diagnostic #    379  TRAC14       Counter:       1   Parms: SMR     MR      
 Computing Diagnostic #    392  TRAC15       Counter:       1   Parms: SMR     MR      
 Computing Diagnostic #    405  TRAC16       Counter:       1   Parms: SMR     MR      
 Computing Diagnostic #    418  TRAC17       Counter:       1   Parms: SMR     MR      
 Computing Diagnostic #    431  TRAC18       Counter:       1   Parms: SMR     MR      
 Computing Diagnostic #    444  TRAC19       Counter:       1   Parms: SMR     MR      
 Computing Diagnostic #    457  TRAC20       Counter:       1   Parms: SMR     MR      
 Computing Diagnostic #    470  TRAC21       Counter:       1   Parms: SMR     MR      
 Computing Diagnostic #    483  TRAC22       Counter:       1   Parms: SMR     MR      
 Computing Diagnostic #    496  TRAC23       Counter:       1   Parms: SMR     MR      
 Computing Diagnostic #    509  TRAC24       Counter:       1   Parms: SMR     MR      
 Computing Diagnostic #    522  TRAC25       Counter:       1   Parms: SMR     MR      
 Computing Diagnostic #    535  TRAC26       Counter:       1   Parms: SMR     MR      
 Computing Diagnostic #    548  TRAC27       Counter:       1   Parms: SMR     MR      
 Computing Diagnostic #    561  TRAC28       Counter:       1   Parms: SMR     MR      
 Computing Diagnostic #    574  TRAC29       Counter:       1   Parms: SMR     MR      
 Computing Diagnostic #    587  TRAC30       Counter:       1   Parms: SMR     MR      
 Computing Diagnostic #    600  TRAC31       Counter:       1   Parms: SMR     MR      
 Computing Diagnostic #    613  TRAC32       Counter:       1   Parms: SMR     MR      
 Computing Diagnostic #    626  TRAC33       Counter:       1   Parms: SMR     MR      
 Computing Diagnostic #    639  TRAC34       Counter:       1   Parms: SMR     MR      
 Computing Diagnostic #    652  TRAC35       Counter:       1   Parms: SMR     MR      
 Computing Diagnostic #    665  TRAC36       Counter:       1   Parms: SMR     MR      
 Computing Diagnostic #    678  TRAC37       Counter:       1   Parms: SMR     MR      
 Computing Diagnostic #    691  TRAC38       Counter:       1   Parms: SMR     MR      
 Computing Diagnostic #    704  TRAC39       Counter:       1   Parms: SMR     MR      
 Computing Diagnostic #    717  TRAC40       Counter:       1   Parms: SMR     MR      
 Computing Diagnostic #    730  TRAC41       Counter:       1   Parms: SMR     MR      
 Computing Diagnostic #    743  TRAC42       Counter:       1   Parms: SMR     MR      
 Computing Diagnostic #    756  TRAC43       Counter:       1   Parms: SMR     MR      
 Computing Diagnostic #    769  TRAC44       Counter:       1   Parms: SMR     MR      
 Computing Diagnostic #    782  TRAC45       Counter:       1   Parms: SMR     MR      
 Computing Diagnostic #    795  TRAC46       Counter:       1   Parms: SMR     MR      
 Computing Diagnostic #    808  TRAC47       Counter:       1   Parms: SMR     MR      
 Computing Diagnostic #    821  TRAC48       Counter:       1   Parms: SMR     MR      
 Computing Diagnostic #    834  TRAC49       Counter:       1   Parms: SMR     MR      
 Computing Diagnostic #    847  TRAC50       Counter:       1   Parms: SMR     MR      
 Computing Diagnostic #    860  TRAC51       Counter:       1   Parms: SMR     MR      
 Computing Diagnostic #    873  TRAC52       Counter:       1   Parms: SMR     MR      
 Computing Diagnostic #    886  TRAC53       Counter:       1   Parms: SMR     MR      
 Computing Diagnostic #    899  TRAC54       Counter:       1   Parms: SMR     MR      
 Computing Diagnostic #    912  TRAC55       Counter:       1   Parms: SMR     MR      
 Computing Diagnostic #    925  TRAC56       Counter:       1   Parms: SMR     MR      
 Computing Diagnostic #    938  TRAC57       Counter:       1   Parms: SMR     MR      
 Computing Diagnostic #    951  TRAC58       Counter:       1   Parms: SMR     MR      
 Computing Diagnostic #    964  TRAC59       Counter:       1   Parms: SMR     MR      
 Computing Diagnostic #    977  TRAC60       Counter:       1   Parms: SMR     MR      
 Computing Diagnostic #    990  TRAC61       Counter:       1   Parms: SMR     MR      
 Computing Diagnostic #   1003  TRAC62       Counter:       1   Parms: SMR     MR      
 Computing Diagnostic #   1016  TRAC63       Counter:       1   Parms: SMR     MR      
 Computing Diagnostic #   1029  TRAC64       Counter:       1   Parms: SMR     MR      
 Computing Diagnostic #   1042  TRAC65       Counter:       1   Parms: SMR     MR      
 Computing Diagnostic #   1055  TRAC66       Counter:       1   Parms: SMR     MR      
 Computing Diagnostic #   1068  TRAC67       Counter:       1   Parms: SMR     MR      
 Computing Diagnostic #   1081  TRAC68       Counter:       1   Parms: SMR     MR      
 Computing Diagnostic #   1094  TRAC69       Counter:       1   Parms: SMR     MR      
 Computing Diagnostic #   1107  TRAC70       Counter:       1   Parms: SMR     MR      
 Computing Diagnostic #   1120  TRAC71       Counter:       1   Parms: SMR     MR      
 Computing Diagnostic #   1133  TRAC72       Counter:       1   Parms: SMR     MR      
 Computing Diagnostic #   1146  TRAC73       Counter:       1   Parms: SMR     MR      
 Computing Diagnostic #   1159  TRAC74       Counter:       1   Parms: SMR     MR      
 Computing Diagnostic #   1172  TRAC75       Counter:       1   Parms: SMR     MR      
 Computing Diagnostic #   1185  TRAC76       Counter:       1   Parms: SMR     MR      
 Computing Diagnostic #   1198  TRAC77       Counter:       1   Parms: SMR     MR      
 Computing Diagnostic #   1211  TRAC78       Counter:       1   Parms: SMR     MR      
 Computing Diagnostic #   1224  TRAC79       Counter:       1   Parms: SMR     MR      
 Computing Diagnostic #   1237  TRAC80       Counter:       1   Parms: SMR     MR      
 Computing Diagnostic #   1250  TRAC81       Counter:       1   Parms: SMR     MR      
 Computing Diagnostic #   1263  TRAC82       Counter:       1   Parms: SMR     MR      
 Computing Diagnostic #   1276  TRAC83       Counter:       1   Parms: SMR     MR      
 Computing Diagnostic #   1289  TRAC84       Counter:       1   Parms: SMR     MR      
 Computing Diagnostic #   1302  TRAC85       Counter:       1   Parms: SMR     MR      
 Computing Diagnostic #   1315  TRAC86       Counter:       1   Parms: SMR     MR      
 Computing Diagnostic #   1328  TRAC87       Counter:       1   Parms: SMR     MR      
 Computing Diagnostic #   1341  TRAC88       Counter:       1   Parms: SMR     MR      
 Computing Diagnostic #   1354  TRAC89       Counter:       1   Parms: SMR     MR      
 Computing Diagnostic #   1367  TRAC90       Counter:       1   Parms: SMR     MR      
 Computing Diagnostic #   1380  TRAC91       Counter:       1   Parms: SMR     MR      
 Computing Diagnostic #   1393  TRAC92       Counter:       1   Parms: SMR     MR      
 Computing Diagnostic #   1406  TRAC93       Counter:       1   Parms: SMR     MR      
 Computing Diagnostic #   1419  TRAC94       Counter:       1   Parms: SMR     MR      
 Computing Diagnostic #   1432  TRAC95       Counter:       1   Parms: SMR     MR      
 Computing Diagnostic #   1445  TRAC96       Counter:       1   Parms: SMR     MR      
 Computing Diagnostic #   1458  TRAC97       Counter:       1   Parms: SMR     MR      
(PID.TID 0000.0001) // =======================================================
(PID.TID 0000.0001) // Begin MONITOR EXF statistics
(PID.TID 0000.0001) // =======================================================
(PID.TID 0000.0001) %MON exf_tsnumber                 =                188391
(PID.TID 0000.0001) %MON exf_time_sec                 =   2.2606920000000000E+08
(PID.TID 0000.0001) %MON exf_ustress_max              =   2.6644568661193518E-01
(PID.TID 0000.0001) %MON exf_ustress_min              =  -3.4999409728334319E-02
(PID.TID 0000.0001) %MON exf_ustress_mean             =   7.4350699325777564E-02
(PID.TID 0000.0001) %MON exf_ustress_sd               =   7.4371219199669811E-02
(PID.TID 0000.0001) %MON exf_ustress_del2             =   6.0013402125380747E-05
(PID.TID 0000.0001) %MON exf_vstress_max              =   1.6109176173383391E-01
(PID.TID 0000.0001) %MON exf_vstress_min              =  -1.8222119185708888E-01
(PID.TID 0000.0001) %MON exf_vstress_mean             =  -2.1681681835869614E-02
(PID.TID 0000.0001) %MON exf_vstress_sd               =   7.3307805401513354E-02
(PID.TID 0000.0001) %MON exf_vstress_del2             =   5.5355476034902701E-05
(PID.TID 0000.0001) %MON exf_hflux_max                =   6.7435781644667742E+01
(PID.TID 0000.0001) %MON exf_hflux_min                =  -1.6615988808676198E+02
(PID.TID 0000.0001) %MON exf_hflux_mean               =  -6.8967718682959855E+01
(PID.TID 0000.0001) %MON exf_hflux_sd                 =   5.7014242290709397E+01
(PID.TID 0000.0001) %MON exf_hflux_del2               =   6.7051983208398058E-01
(PID.TID 0000.0001) %MON exf_sflux_max                =   9.1058318769654353E-09
(PID.TID 0000.0001) %MON exf_sflux_min                =  -2.8377542394777442E-07
(PID.TID 0000.0001) %MON exf_sflux_mean               =  -9.3030274695270644E-08
(PID.TID 0000.0001) %MON exf_sflux_sd                 =   6.8781030375803454E-08
(PID.TID 0000.0001) %MON exf_sflux_del2               =   1.1477279584526583E-09
(PID.TID 0000.0001) %MON exf_uwind_max                =   1.1855495563626070E+01
(PID.TID 0000.0001) %MON exf_uwind_min                =  -2.6125301098458173E+00
(PID.TID 0000.0001) %MON exf_uwind_mean               =   5.5602340054620782E+00
(PID.TID 0000.0001) %MON exf_uwind_sd                 =   3.6516886045255350E+00
(PID.TID 0000.0001) %MON exf_uwind_del2               =   1.5878568029192609E-03
(PID.TID 0000.0001) %MON exf_vwind_max                =   1.0422203187561712E+01
(PID.TID 0000.0001) %MON exf_vwind_min                =  -8.3659073602354486E+00
(PID.TID 0000.0001) %MON exf_vwind_mean               =  -1.4505193297720806E+00
(PID.TID 0000.0001) %MON exf_vwind_sd                 =   5.3121927060590233E+00
(PID.TID 0000.0001) %MON exf_vwind_del2               =   2.0427123224184161E-03
(PID.TID 0000.0001) %MON exf_wspeed_max               =   1.3600702280435295E+01
(PID.TID 0000.0001) %MON exf_wspeed_min               =   3.9053919379122517E+00
(PID.TID 0000.0001) %MON exf_wspeed_mean              =   8.2801707331325982E+00
(PID.TID 0000.0001) %MON exf_wspeed_sd                =   2.4521831421086766E+00
(PID.TID 0000.0001) %MON exf_wspeed_del2              =   6.9333509572292396E-02
(PID.TID 0000.0001) %MON exf_atemp_max                =   2.7980717683929106E+02
(PID.TID 0000.0001) %MON exf_atemp_min                =   2.6689778854720720E+02
(PID.TID 0000.0001) %MON exf_atemp_mean               =   2.7511922883431652E+02
(PID.TID 0000.0001) %MON exf_atemp_sd                 =   2.5339357357314896E+00
(PID.TID 0000.0001) %MON exf_atemp_del2               =   1.8112347123486021E-02
(PID.TID 0000.0001) %MON exf_aqh_max                  =   5.9884288922226201E-03
(PID.TID 0000.0001) %MON exf_aqh_min                  =   2.3918565401377543E-03
(PID.TID 0000.0001) %MON exf_aqh_mean                 =   4.3011443793434549E-03
(PID.TID 0000.0001) %MON exf_aqh_sd                   =   7.2391808043025267E-04
(PID.TID 0000.0001) %MON exf_aqh_del2                 =   2.9355777788201923E-05
(PID.TID 0000.0001) %MON exf_lwflux_max               =   8.1841077172079423E+01
(PID.TID 0000.0001) %MON exf_lwflux_min               =   6.8862938124792095E+00
(PID.TID 0000.0001) %MON exf_lwflux_mean              =   4.0954694131374566E+01
(PID.TID 0000.0001) %MON exf_lwflux_sd                =   1.9156856710941810E+01
(PID.TID 0000.0001) %MON exf_lwflux_del2              =   2.8255329134493551E-01
(PID.TID 0000.0001) %MON exf_precip_max               =   2.8536487438251855E-07
(PID.TID 0000.0001) %MON exf_precip_min               =   5.1409160208117021E-09
(PID.TID 0000.0001) %MON exf_precip_mean              =   8.9661069870053619E-08
(PID.TID 0000.0001) %MON exf_precip_sd                =   6.7653522031296985E-08
(PID.TID 0000.0001) %MON exf_precip_del2              =   1.1771648479673500E-09
(PID.TID 0000.0001) %MON exf_swflux_max               =  -8.3892029753664730E+01
(PID.TID 0000.0001) %MON exf_swflux_min               =  -1.9705000172198885E+02
(PID.TID 0000.0001) %MON exf_swflux_mean              =  -1.3082241341568644E+02
(PID.TID 0000.0001) %MON exf_swflux_sd                =   2.9759038189174014E+01
(PID.TID 0000.0001) %MON exf_swflux_del2              =   8.6128235650260465E-01
(PID.TID 0000.0001) %MON exf_evap_max                 =   2.5196341631287907E-08
(PID.TID 0000.0001) %MON exf_evap_min                 =  -1.2085967148100911E-08
(PID.TID 0000.0001) %MON exf_evap_mean                =   5.2945049921960396E-09
(PID.TID 0000.0001) %MON exf_evap_sd                  =   8.1824614718955923E-09
(PID.TID 0000.0001) %MON exf_evap_del2                =   8.5880951352535787E-11
(PID.TID 0000.0001) %MON exf_swdown_max               =   2.3182353143763396E+02
(PID.TID 0000.0001) %MON exf_swdown_min               =   9.8696505592546742E+01
(PID.TID 0000.0001) %MON exf_swdown_mean              =   1.5390872166551330E+02
(PID.TID 0000.0001) %MON exf_swdown_sd                =   3.5010633163734134E+01
(PID.TID 0000.0001) %MON exf_swdown_del2              =   1.0132733605912996E+00
(PID.TID 0000.0001) %MON exf_lwdown_max               =   3.0434905842577780E+02
(PID.TID 0000.0001) %MON exf_lwdown_min               =   2.4207456790914154E+02
(PID.TID 0000.0001) %MON exf_lwdown_mean              =   2.7412690918284909E+02
(PID.TID 0000.0001) %MON exf_lwdown_sd                =   1.5083462948753414E+01
(PID.TID 0000.0001) %MON exf_lwdown_del2              =   2.0643133494165600E+00
(PID.TID 0000.0001) %MON exf_runoff_max               =   7.4975011851692206E-08
(PID.TID 0000.0001) %MON exf_runoff_min               =   0.0000000000000000E+00
(PID.TID 0000.0001) %MON exf_runoff_mean              =   8.6637098174130328E-09
(PID.TID 0000.0001) %MON exf_runoff_sd                =   1.9487938307725037E-08
(PID.TID 0000.0001) %MON exf_runoff_del2              =   6.8076164467882094E-11
(PID.TID 0000.0001) %MON exf_climsss_max              =   3.4374135480700701E+01
(PID.TID 0000.0001) %MON exf_climsss_min              =   2.9704156415225551E+00
(PID.TID 0000.0001) %MON exf_climsss_mean             =   1.2720517329396097E+01
(PID.TID 0000.0001) %MON exf_climsss_sd               =   1.0010246181932745E+01
(PID.TID 0000.0001) %MON exf_climsss_del2             =   3.2300220279075677E-03
(PID.TID 0000.0001) // =======================================================
(PID.TID 0000.0001) // End MONITOR EXF statistics
(PID.TID 0000.0001) // =======================================================
 SEAICE_LSR: Residual Initial ipass,Uice,Vice=    1  2.08413274E-02  2.13279248E-02
 SEAICE_LSR (ipass=   1) iters,dU,Resid=   564  9.40636458E-14  2.90379957E-13
 SEAICE_LSR (ipass=   1) iters,dV,Resid=   546  9.43342626E-14  1.61360877E-12
 SEAICE_LSR: Residual Initial ipass,Uice,Vice=    2  8.50110729E-03  1.18644479E-02
 SEAICE_LSR (ipass=   2) iters,dU,Resid=   534  9.28424004E-14  2.84895693E-13
 SEAICE_LSR (ipass=   2) iters,dV,Resid=   510  9.34738398E-14  1.50141286E-12
 cg2d: Sum(rhs),rhsMax =  -6.09351300862327E+02  2.80144713676198E-01
(PID.TID 0000.0001)      cg2d_init_res =   1.71549770699978E-01
(PID.TID 0000.0001)      cg2d_iters(min,last) =      -1      20
(PID.TID 0000.0001)      cg2d_last_res =   5.91302593624594E-06
 obcs          15          -3   0.0000000000000000        1.0000000000000000     
 obcs          15          -2   0.0000000000000000        1.0000000000000000     
 obcs          15          -1   0.0000000000000000        1.0000000000000000     
 obcs          15           0   0.0000000000000000        1.0000000000000000     
 obcs          15           1   1.4542530548210869E-003   1.0000000000000000     
 obcs          15           2  0.26056595742431060        1.0000000000000000     
 obcs          15           3  0.56059657943813312        1.0000000000000000     
 obcs          15           4  0.64375063044125924        1.0000000000000000     
 obcs          15           5  0.68891657099046344        1.0000000000000000     
 obcs          15           6  0.90738881812286731        1.0000000000000000     
 obcs          15           7  0.63739835746409890        1.0000000000000000     
 obcs          15           8  0.84724194272836917        1.0000000000000000     
 obcs          15           9  0.83134153257302246        1.0000000000000000     
 obcs          15          10  0.80215849880746593        1.0000000000000000     
 obcs          15          11  0.79465745441032021        1.0000000000000000     
 obcs          15          12  0.75232456806361780        1.0000000000000000     
 obcs          15          13  0.77944783266559103        1.0000000000000000     
 obcs          15          14  0.70345129645370175        1.0000000000000000     
 obcs          15          15  0.66326734385638064        1.0000000000000000     
 obcs          15          16  0.57642907939701993        1.0000000000000000     
 obcs          15          17  0.43735487470047063        1.0000000000000000     
 obcs          15          18  0.24517499643949647        1.0000000000000000     
 obcs          15          19   6.3356677489270374E-002   1.0000000000000000     
 obcs          15          20   4.7196052623072970E-002   1.0000000000000000     
 obcs          15          21   4.3523393236232145E-002   1.0000000000000000     
 obcs          15          22   4.2245953823889321E-002   1.0000000000000000     
 obcs          15          23   0.0000000000000000        1.0000000000000000     
 obcs          15          24   0.0000000000000000        1.0000000000000000     
 obcs          15          25   0.0000000000000000        1.0000000000000000     
 obcs          15          26   0.0000000000000000        1.0000000000000000     
 obcs          15          27   0.0000000000000000        1.0000000000000000     
 obcs          15          28   0.0000000000000000        1.0000000000000000     
 obcs          15          29   0.0000000000000000        1.0000000000000000     
 obcs          15          30   0.0000000000000000        1.0000000000000000     
 obcs          15          31   0.0000000000000000        1.0000000000000000     
 obcs          15          32   0.0000000000000000        1.0000000000000000     
 obcs          15          33   0.0000000000000000        1.0000000000000000     
 obcs          15          34   0.0000000000000000        1.0000000000000000     
 obcs          15          35   0.0000000000000000        1.0000000000000000     
 obcs          15          36   0.0000000000000000        1.0000000000000000     
 obcs          15          37   0.0000000000000000        1.0000000000000000     
 obcs          15          38   0.0000000000000000        1.0000000000000000     
 obcs          15          39   0.0000000000000000        1.0000000000000000     
 obcs          15          40   0.0000000000000000        1.0000000000000000     
 obcs          15          41   0.0000000000000000        1.0000000000000000     
 obcs          15          42   0.0000000000000000        1.0000000000000000     
 obcs          15          -3   0.0000000000000000        1.0000000000000000     
 obcs          15          -2   0.0000000000000000        1.0000000000000000     
 obcs          15          -1   0.0000000000000000        1.0000000000000000     
 obcs          15           0   0.0000000000000000        1.0000000000000000     
 obcs          15           1   0.0000000000000000        1.0000000000000000     
 obcs          15           2   0.0000000000000000        1.0000000000000000     
 obcs          15           3   0.0000000000000000        1.0000000000000000     
 obcs          15           4   0.0000000000000000        1.0000000000000000     
 obcs          15           5   0.0000000000000000        1.0000000000000000     
 obcs          15           6   0.0000000000000000        1.0000000000000000     
 obcs          15           7   0.0000000000000000        1.0000000000000000     
 obcs          15           8   0.0000000000000000        1.0000000000000000     
 obcs          15           9   0.0000000000000000        1.0000000000000000     
 obcs          15          10   0.0000000000000000        1.0000000000000000     
 obcs          15          11   0.0000000000000000        1.0000000000000000     
 obcs          15          12   0.0000000000000000        1.0000000000000000     
 obcs          15          13   0.0000000000000000        1.0000000000000000     
 obcs          15          14   0.0000000000000000        1.0000000000000000     
 obcs          15          15   0.0000000000000000        1.0000000000000000     
 obcs          15          16   0.0000000000000000        1.0000000000000000     
 obcs          15          17   0.0000000000000000        1.0000000000000000     
 obcs          15          18   0.0000000000000000        1.0000000000000000     
 obcs          15          19   0.0000000000000000        1.0000000000000000     
 obcs          15          20   0.0000000000000000        1.0000000000000000     
 obcs          15          21   0.0000000000000000        1.0000000000000000     
 obcs          15          22   0.0000000000000000        1.0000000000000000     
 obcs          15          23   0.0000000000000000        1.0000000000000000     
 obcs          15          24   0.0000000000000000        1.0000000000000000     
 obcs          15          25   0.0000000000000000        1.0000000000000000     
 obcs          15          26   0.0000000000000000        1.0000000000000000     
 obcs          15          27   0.0000000000000000        1.0000000000000000     
 obcs          15          28   0.0000000000000000        1.0000000000000000     
 obcs          15          29   0.0000000000000000        1.0000000000000000     
 obcs          15          30   0.0000000000000000        1.0000000000000000     
 obcs          15          31   0.0000000000000000        1.0000000000000000     
 obcs          15          32   0.0000000000000000        1.0000000000000000     
 obcs          15          33   0.0000000000000000        1.0000000000000000     
 obcs          15          34   0.0000000000000000        1.0000000000000000     
 obcs          15          35   0.0000000000000000        1.0000000000000000     
 obcs          15          36   0.0000000000000000        1.0000000000000000     
 obcs          15          37   0.0000000000000000        1.0000000000000000     
 obcs          15          38   0.0000000000000000        1.0000000000000000     
 obcs          15          39   1.4844482275484887E-003   1.0000000000000000     
 obcs          15          40  0.38936773728208546        1.0000000000000000     
 obcs          15          41   1.8943674686463037        1.0000000000000000     
 obcs          15          42  0.78570554138254978        1.0000000000000000     
(PID.TID 0000.0001) totgC    1.6040471947429615E-06   5.6883105779655214E-20
(PID.TID 0000.0001) totgN    1.2196894411576977E-07   4.3252919070638403E-21
(PID.TID 0000.0001) totgP    9.2750566570231284E-09   3.2891428049178159E-22
(PID.TID 0000.0001) totgFe   1.4301514744103923E+02   5.0716374098239840E-12
(PID.TID 0000.0001) totgSi   3.9458510222294306E-08   1.3992871395794837E-21
 fe   0.0000000000000000     
 fe   0.0000000000000000     
 fe   0.0000000000000000     
 fe   0.0000000000000000     
(PID.TID 0000.0001) // =======================================================
(PID.TID 0000.0001) // Begin MONITOR dynamic field statistics
(PID.TID 0000.0001) // =======================================================
(PID.TID 0000.0001) %MON time_tsnumber                =                188392
(PID.TID 0000.0001) %MON time_secondsf                =   2.2607040000000000E+08
(PID.TID 0000.0001) %MON dynstat_eta_max              =   6.5954878717781251E-01
(PID.TID 0000.0001) %MON dynstat_eta_min              =   5.2952090111488506E-02
(PID.TID 0000.0001) %MON dynstat_eta_mean             =   3.7231404183316386E-01
(PID.TID 0000.0001) %MON dynstat_eta_sd               =   1.5147655434894394E-01
(PID.TID 0000.0001) %MON dynstat_eta_del2             =   3.3492158043211975E-04
(PID.TID 0000.0001) %MON dynstat_uvel_max             =   3.8573787341940391E-01
(PID.TID 0000.0001) %MON dynstat_uvel_min             =  -3.3822314843012663E-01
(PID.TID 0000.0001) %MON dynstat_uvel_mean            =   5.4331113110409430E-03
(PID.TID 0000.0001) %MON dynstat_uvel_sd              =   6.2444292830346658E-02
(PID.TID 0000.0001) %MON dynstat_uvel_del2            =   9.7137898119002133E-04
(PID.TID 0000.0001) %MON dynstat_vvel_max             =   2.6254398833970283E-01
(PID.TID 0000.0001) %MON dynstat_vvel_min             =  -4.4623193084762275E-01
(PID.TID 0000.0001) %MON dynstat_vvel_mean            =   3.0144457399256101E-03
(PID.TID 0000.0001) %MON dynstat_vvel_sd              =   6.3578556710791032E-02
(PID.TID 0000.0001) %MON dynstat_vvel_del2            =   1.1571815141794429E-03
(PID.TID 0000.0001) %MON dynstat_wvel_max             =   4.9238857455585197E-04
(PID.TID 0000.0001) %MON dynstat_wvel_min             =  -5.0578569258670958E-04
(PID.TID 0000.0001) %MON dynstat_wvel_mean            =  -2.6265791300627587E-06
(PID.TID 0000.0001) %MON dynstat_wvel_sd              =   7.4596650801527864E-05
(PID.TID 0000.0001) %MON dynstat_wvel_del2            =   2.0196050483550764E-06
(PID.TID 0000.0001) %MON dynstat_theta_max            =   7.9705212021769070E+00
(PID.TID 0000.0001) %MON dynstat_theta_min            =  -1.6137814050003809E+00
(PID.TID 0000.0001) %MON dynstat_theta_mean           =   3.7809466023316594E+00
(PID.TID 0000.0001) %MON dynstat_theta_sd             =   2.2008589694880563E+00
(PID.TID 0000.0001) %MON dynstat_theta_del2           =   6.0294933842779102E-03
(PID.TID 0000.0001) %MON dynstat_salt_max             =   3.4928013332358915E+01
(PID.TID 0000.0001) %MON dynstat_salt_min             =   5.6522779501189495E+00
(PID.TID 0000.0001) %MON dynstat_salt_mean            =   1.5353128326726194E+01
(PID.TID 0000.0001) %MON dynstat_salt_sd              =   1.1951655130450712E+01
(PID.TID 0000.0001) %MON dynstat_salt_del2            =   3.5914733038465338E-03
(PID.TID 0000.0001) %MON forcing_qnet_max             =   2.4929385175327729E+02
(PID.TID 0000.0001) %MON forcing_qnet_min             =  -1.0801510824568090E+03
(PID.TID 0000.0001) %MON forcing_qnet_mean            =  -5.2540004262567209E+01
(PID.TID 0000.0001) %MON forcing_qnet_sd              =   8.3418291892173784E+01
(PID.TID 0000.0001) %MON forcing_qnet_del2            =   3.7728146965706486E+00
(PID.TID 0000.0001) %MON forcing_qsw_max              =   0.0000000000000000E+00
(PID.TID 0000.0001) %MON forcing_qsw_min              =  -1.9705000172198885E+02
(PID.TID 0000.0001) %MON forcing_qsw_mean             =  -1.0762957576191162E+02
(PID.TID 0000.0001) %MON forcing_qsw_sd               =   6.0816618025205308E+01
(PID.TID 0000.0001) %MON forcing_qsw_del2             =   4.7109475467151896E-01
(PID.TID 0000.0001) %MON forcing_empmr_max            =   2.9220799270159234E-03
(PID.TID 0000.0001) %MON forcing_empmr_min            =  -9.6432629561968471E-04
(PID.TID 0000.0001) %MON forcing_empmr_mean           =  -8.8513469615741664E-05
(PID.TID 0000.0001) %MON forcing_empmr_sd             =   1.9094071321886649E-04
(PID.TID 0000.0001) %MON forcing_empmr_del2           =   1.1228928589926947E-05
(PID.TID 0000.0001) %MON forcing_fu_max               =   2.6589542229974766E-01
(PID.TID 0000.0001) %MON forcing_fu_min               =  -1.2276677382356480E-01
(PID.TID 0000.0001) %MON forcing_fu_mean              =   7.8431651379856068E-02
(PID.TID 0000.0001) %MON forcing_fu_sd                =   7.9361198538623126E-02
(PID.TID 0000.0001) %MON forcing_fu_del2              =   3.9068886651199197E-04
(PID.TID 0000.0001) %MON forcing_fv_max               =   1.8704157915496722E-01
(PID.TID 0000.0001) %MON forcing_fv_min               =  -1.8200630065927687E-01
(PID.TID 0000.0001) %MON forcing_fv_mean              =  -2.7053452806554044E-02
(PID.TID 0000.0001) %MON forcing_fv_sd                =   6.9269247916113552E-02
(PID.TID 0000.0001) %MON forcing_fv_del2              =   3.7544468140479658E-04
(PID.TID 0000.0001) %MON advcfl_uvel_max              =   2.2783505095420934E-02
(PID.TID 0000.0001) %MON advcfl_vvel_max              =   3.2778294393797036E-02
(PID.TID 0000.0001) %MON advcfl_wvel_max              =   5.9086628946702240E-02
(PID.TID 0000.0001) %MON advcfl_W_hf_max              =   5.9086628946702240E-02
(PID.TID 0000.0001) %MON pe_b_mean                    =   1.3670043241978657E-02
(PID.TID 0000.0001) %MON ke_max                       =   1.0607116089268576E-01
(PID.TID 0000.0001) %MON ke_mean                      =   3.2232179049777321E-03
(PID.TID 0000.0001) %MON ke_vol                       =   2.7634533915293965E+13
(PID.TID 0000.0001) %MON vort_r_min                   =  -3.5801416593263499E-05
(PID.TID 0000.0001) %MON vort_r_max                   =   3.3341500408080036E-05
(PID.TID 0000.0001) %MON vort_a_mean                  =   1.2397552845230694E-04
(PID.TID 0000.0001) %MON vort_a_sd                    =   6.2810973785965445E-06
(PID.TID 0000.0001) %MON vort_p_mean                  =   1.7325640948569762E-04
(PID.TID 0000.0001) %MON vort_p_sd                    =   1.0959246553253314E-04
(PID.TID 0000.0001) %MON surfExpan_theta_mean         =  -1.5704509478033499E-07
(PID.TID 0000.0001) %MON surfExpan_salt_mean          =   1.5979377951127271E-06
(PID.TID 0000.0001) // =======================================================
(PID.TID 0000.0001) // End MONITOR dynamic field statistics
(PID.TID 0000.0001) // =======================================================
(PID.TID 0000.0001) // =======================================================
(PID.TID 0000.0001) // Begin OBCS MONITOR field statistics
(PID.TID 0000.0001) // =======================================================
(PID.TID 0000.0001) %MON obc_W_uVel_max               =   7.0301566347615529E-02
(PID.TID 0000.0001) %MON obc_W_uVel_min               =  -1.2513943050881146E-02
(PID.TID 0000.0001) %MON obc_W_uVel_mean              =   2.2505036616222475E-02
(PID.TID 0000.0001) %MON obc_W_uVel_sd                =   2.5867082242056968E-02
(PID.TID 0000.0001) %MON obc_W_uVel_Int               =   4.7331527538411807E+04
(PID.TID 0000.0001) %MON obc_N_vVel_max               =   1.8553375570826192E-01
(PID.TID 0000.0001) %MON obc_N_vVel_min               =  -2.5360847069103210E-01
(PID.TID 0000.0001) %MON obc_N_vVel_mean              =   1.5206960613706650E-03
(PID.TID 0000.0001) %MON obc_N_vVel_sd                =   8.5364009680268207E-02
(PID.TID 0000.0001) %MON obc_N_vVel_Int               =   4.7708047577853431E+04
(PID.TID 0000.0001) // =======================================================
(PID.TID 0000.0001) // End OBCS MONITOR field statistics
(PID.TID 0000.0001) // =======================================================
(PID.TID 0000.0001) // =======================================================
(PID.TID 0000.0001) // Begin MONITOR SEAICE statistics
(PID.TID 0000.0001) // =======================================================
(PID.TID 0000.0001) %MON seaice_tsnumber              =                188392
(PID.TID 0000.0001) %MON seaice_time_sec              =   2.2607040000000000E+08
(PID.TID 0000.0001) %MON seaice_uice_max              =   6.3825638310231481E-01
(PID.TID 0000.0001) %MON seaice_uice_min              =  -2.3338621789096434E-01
(PID.TID 0000.0001) %MON seaice_uice_mean             =   1.5811297186034495E-01
(PID.TID 0000.0001) %MON seaice_uice_sd               =   1.2995549159830938E-01
(PID.TID 0000.0001) %MON seaice_uice_del2             =   2.8204882589888420E-03
(PID.TID 0000.0001) %MON seaice_vice_max              =   4.5610521279044575E-01
(PID.TID 0000.0001) %MON seaice_vice_min              =  -5.9899210856194229E-01
(PID.TID 0000.0001) %MON seaice_vice_mean             =  -8.2249707152151866E-02
(PID.TID 0000.0001) %MON seaice_vice_sd               =   1.4242486602204973E-01
(PID.TID 0000.0001) %MON seaice_vice_del2             =   3.0153252441621828E-03
(PID.TID 0000.0001) %MON seaice_area_max              =   1.0000000000000000E+00
(PID.TID 0000.0001) %MON seaice_area_min              =   0.0000000000000000E+00
(PID.TID 0000.0001) %MON seaice_area_mean             =   2.2569545899757851E-01
(PID.TID 0000.0001) %MON seaice_area_sd               =   3.8539591588496092E-01
(PID.TID 0000.0001) %MON seaice_area_del2             =   4.5488419642148795E-03
(PID.TID 0000.0001) %MON seaice_heff_max              =   1.0116385428131791E+00
(PID.TID 0000.0001) %MON seaice_heff_min              =   0.0000000000000000E+00
(PID.TID 0000.0001) %MON seaice_heff_mean             =   1.2500739211943607E-01
(PID.TID 0000.0001) %MON seaice_heff_sd               =   2.4345786319991755E-01
(PID.TID 0000.0001) %MON seaice_heff_del2             =   2.2847188011168207E-03
(PID.TID 0000.0001) %MON seaice_hsnow_max             =   2.7638305000659563E-01
(PID.TID 0000.0001) %MON seaice_hsnow_min             =   0.0000000000000000E+00
(PID.TID 0000.0001) %MON seaice_hsnow_mean            =   3.0997333370881917E-02
(PID.TID 0000.0001) %MON seaice_hsnow_sd              =   6.4633626303114783E-02
(PID.TID 0000.0001) %MON seaice_hsnow_del2            =   3.8284438482616786E-04
(PID.TID 0000.0001) // =======================================================
(PID.TID 0000.0001) // End MONITOR SEAICE statistics
(PID.TID 0000.0001) // =======================================================
(PID.TID 0000.0001) // =======================================================
(PID.TID 0000.0001) // Begin MONITOR ptracer field statistics
(PID.TID 0000.0001) // =======================================================
(PID.TID 0000.0001) %MON trcstat_ptracer01_max        =   1.0996161723799511E+02
(PID.TID 0000.0001) %MON trcstat_ptracer01_min        =  -3.9785765321397423E-02
(PID.TID 0000.0001) %MON trcstat_ptracer01_mean       =   2.6535141357530823E-01
(PID.TID 0000.0001) %MON trcstat_ptracer01_sd         =   3.7237823001302486E+00
(PID.TID 0000.0001) %MON trcstat_ptracer01_del2       =   3.0523764735306202E+00
(PID.TID 0000.0001) %MON trcstat_ptracer02_max        =   2.5375204377372473E-01
(PID.TID 0000.0001) %MON trcstat_ptracer02_min        =   2.2890547686134781E-07
(PID.TID 0000.0001) %MON trcstat_ptracer02_mean       =   1.3875813918764397E-02
(PID.TID 0000.0001) %MON trcstat_ptracer02_sd         =   1.8284949646715312E-02
(PID.TID 0000.0001) %MON trcstat_ptracer02_del2       =   8.3716900306992790E-04
(PID.TID 0000.0001) %MON trcstat_ptracer03_max        =   2.3329408089158772E+00
(PID.TID 0000.0001) %MON trcstat_ptracer03_min        =   3.0124103215580110E-05
(PID.TID 0000.0001) %MON trcstat_ptracer03_mean       =   1.5996376606696222E-01
(PID.TID 0000.0001) %MON trcstat_ptracer03_sd         =   1.8960198753181129E-01
(PID.TID 0000.0001) %MON trcstat_ptracer03_del2       =   7.0993032154160129E-04
(PID.TID 0000.0001) %MON trcstat_ptracer04_max        =   4.4159667983841452E+01
(PID.TID 0000.0001) %MON trcstat_ptracer04_min        =   1.4930485369305633E-02
(PID.TID 0000.0001) %MON trcstat_ptracer04_mean       =   4.5818649022744511E+00
(PID.TID 0000.0001) %MON trcstat_ptracer04_sd         =   6.6979402666106092E+00
(PID.TID 0000.0001) %MON trcstat_ptracer04_del2       =   1.2515425024412262E-02
(PID.TID 0000.0001) %MON trcstat_ptracer05_max        =   4.3205418600139458E+00
(PID.TID 0000.0001) %MON trcstat_ptracer05_min        =   3.8006187495350757E-02
(PID.TID 0000.0001) %MON trcstat_ptracer05_mean       =   5.9109035848032532E-01
(PID.TID 0000.0001) %MON trcstat_ptracer05_sd         =   5.1750280449007779E-01
(PID.TID 0000.0001) %MON trcstat_ptracer05_del2       =   8.6438588807461706E-04
(PID.TID 0000.0001) %MON trcstat_ptracer06_max        =   1.5669306818531675E+02
(PID.TID 0000.0001) %MON trcstat_ptracer06_min        =   6.3397037912963874E-02
(PID.TID 0000.0001) %MON trcstat_ptracer06_mean       =   1.4711919338308595E+01
(PID.TID 0000.0001) %MON trcstat_ptracer06_sd         =   1.7083959449118368E+01
(PID.TID 0000.0001) %MON trcstat_ptracer06_del2       =   2.7983714406445544E-02
(PID.TID 0000.0001) %MON trcstat_ptracer07_max        =   1.3876603116415426E-03
(PID.TID 0000.0001) %MON trcstat_ptracer07_min        =   5.8941235023072429E-04
(PID.TID 0000.0001) %MON trcstat_ptracer07_mean       =   1.0854677004001091E-03
(PID.TID 0000.0001) %MON trcstat_ptracer07_sd         =   1.4539161239259126E-04
(PID.TID 0000.0001) %MON trcstat_ptracer07_del2       =   4.5481272540544727E-07
(PID.TID 0000.0001) %MON trcstat_ptracer08_max        =   3.4006033018903587E+01
(PID.TID 0000.0001) %MON trcstat_ptracer08_min        =   1.0003903546618293E-05
(PID.TID 0000.0001) %MON trcstat_ptracer08_mean       =   7.0078583426923622E+00
(PID.TID 0000.0001) %MON trcstat_ptracer08_sd         =   6.8289090953431097E+00
(PID.TID 0000.0001) %MON trcstat_ptracer08_del2       =   2.9858118294663061E-02
(PID.TID 0000.0001) %MON trcstat_ptracer09_max        =   4.5341377358538111E+00
(PID.TID 0000.0001) %MON trcstat_ptracer09_min        =   1.3338538062157721E-06
(PID.TID 0000.0001) %MON trcstat_ptracer09_mean       =   9.3456903186893470E-01
(PID.TID 0000.0001) %MON trcstat_ptracer09_sd         =   9.1077681266116983E-01
(PID.TID 0000.0001) %MON trcstat_ptracer09_del2       =   2.3510944259640598E-03
(PID.TID 0000.0001) %MON trcstat_ptracer10_max        =   2.8338360849086319E-01
(PID.TID 0000.0001) %MON trcstat_ptracer10_min        =   8.3365862888485756E-08
(PID.TID 0000.0001) %MON trcstat_ptracer10_mean       =   5.8410564491808419E-02
(PID.TID 0000.0001) %MON trcstat_ptracer10_sd         =   5.6923550791323115E-02
(PID.TID 0000.0001) %MON trcstat_ptracer10_del2       =   1.4694340162275374E-04
(PID.TID 0000.0001) %MON trcstat_ptracer11_max        =   2.8338360849086231E-04
(PID.TID 0000.0001) %MON trcstat_ptracer11_min        =   8.3365862888488300E-11
(PID.TID 0000.0001) %MON trcstat_ptracer11_mean       =   5.8410564480123673E-05
(PID.TID 0000.0001) %MON trcstat_ptracer11_sd         =   5.6923550846057201E-05
(PID.TID 0000.0001) %MON trcstat_ptracer11_del2       =   1.4694340203399238E-07
(PID.TID 0000.0001) %MON trcstat_ptracer12_max        =   1.1921217557689354E+02
(PID.TID 0000.0001) %MON trcstat_ptracer12_min        =   4.0614948667430684E-07
(PID.TID 0000.0001) %MON trcstat_ptracer12_mean       =   2.4541453830559070E+00
(PID.TID 0000.0001) %MON trcstat_ptracer12_sd         =   5.8876192504694824E+00
(PID.TID 0000.0001) %MON trcstat_ptracer12_del2       =   3.8651442801520809E-02
(PID.TID 0000.0001) %MON trcstat_ptracer13_max        =   1.5894956743585805E+01
(PID.TID 0000.0001) %MON trcstat_ptracer13_min        =   5.4153264889907558E-08
(PID.TID 0000.0001) %MON trcstat_ptracer13_mean       =   3.2726950893700590E-01
(PID.TID 0000.0001) %MON trcstat_ptracer13_sd         =   7.8505003464366985E-01
(PID.TID 0000.0001) %MON trcstat_ptracer13_del2       =   4.7525229362117742E-03
(PID.TID 0000.0001) %MON trcstat_ptracer14_max        =   9.9343479647411281E-01
(PID.TID 0000.0001) %MON trcstat_ptracer14_min        =   3.3845790556192224E-09
(PID.TID 0000.0001) %MON trcstat_ptracer14_mean       =   2.0454344308562869E-02
(PID.TID 0000.0001) %MON trcstat_ptracer14_sd         =   4.9065627165229365E-02
(PID.TID 0000.0001) %MON trcstat_ptracer14_del2       =   2.9703268351323589E-04
(PID.TID 0000.0001) %MON trcstat_ptracer15_max        =   3.0492833503212358E+02
(PID.TID 0000.0001) %MON trcstat_ptracer15_min        =   9.1004460092405577E-08
(PID.TID 0000.0001) %MON trcstat_ptracer15_mean       =   2.2922709400753103E+00
(PID.TID 0000.0001) %MON trcstat_ptracer15_sd         =   1.2509865243611609E+01
(PID.TID 0000.0001) %MON trcstat_ptracer15_del2       =   5.3806203211078173E-02
(PID.TID 0000.0001) %MON trcstat_ptracer16_max        =   9.9343479647411330E-04
(PID.TID 0000.0001) %MON trcstat_ptracer16_min        =   3.3845790556192212E-12
(PID.TID 0000.0001) %MON trcstat_ptracer16_mean       =   2.0454344313167066E-05
(PID.TID 0000.0001) %MON trcstat_ptracer16_sd         =   4.9065627162067605E-05
(PID.TID 0000.0001) %MON trcstat_ptracer16_del2       =   2.9703268373799360E-07
(PID.TID 0000.0001) %MON trcstat_ptracer17_max        =   0.0000000000000000E+00
(PID.TID 0000.0001) %MON trcstat_ptracer17_min        =   0.0000000000000000E+00
(PID.TID 0000.0001) %MON trcstat_ptracer17_mean       =   0.0000000000000000E+00
(PID.TID 0000.0001) %MON trcstat_ptracer17_sd         =   0.0000000000000000E+00
(PID.TID 0000.0001) %MON trcstat_ptracer17_del2       =   0.0000000000000000E+00
(PID.TID 0000.0001) %MON trcstat_ptracer18_max        =   6.7304586767911456E-03
(PID.TID 0000.0001) %MON trcstat_ptracer18_min        =  -2.5282282608954467E-17
(PID.TID 0000.0001) %MON trcstat_ptracer18_mean       =   1.5036515012885004E-05
(PID.TID 0000.0001) %MON trcstat_ptracer18_sd         =   2.1694691000401982E-04
(PID.TID 0000.0001) %MON trcstat_ptracer18_del2       =   5.4413752611164451E-06
(PID.TID 0000.0001) %MON trcstat_ptracer19_max        =   6.2313777200475276E-02
(PID.TID 0000.0001) %MON trcstat_ptracer19_min        =  -2.7122200959813499E-22
(PID.TID 0000.0001) %MON trcstat_ptracer19_mean       =   8.7423001217771504E-04
(PID.TID 0000.0001) %MON trcstat_ptracer19_sd         =   4.7540079562108798E-03
(PID.TID 0000.0001) %MON trcstat_ptracer19_del2       =   2.2600851870756682E-05
(PID.TID 0000.0001) %MON trcstat_ptracer20_max        =   6.7304594023260625E-03
(PID.TID 0000.0001) %MON trcstat_ptracer20_min        =   6.8471004290782678E-49
(PID.TID 0000.0001) %MON trcstat_ptracer20_mean       =   1.5052184570718055E-05
(PID.TID 0000.0001) %MON trcstat_ptracer20_sd         =   2.1694582547760342E-04
(PID.TID 0000.0001) %MON trcstat_ptracer20_del2       =   5.4413764646088247E-06
(PID.TID 0000.0001) %MON trcstat_ptracer21_max        =   1.7063202706893370E-02
(PID.TID 0000.0001) %MON trcstat_ptracer21_min        =   9.6877711899659171E-32
(PID.TID 0000.0001) %MON trcstat_ptracer21_mean       =   3.2297924167030875E-04
(PID.TID 0000.0001) %MON trcstat_ptracer21_sd         =   1.2949138851574840E-03
(PID.TID 0000.0001) %MON trcstat_ptracer21_del2       =   1.2543698518087624E-05
(PID.TID 0000.0001) %MON trcstat_ptracer22_max        =   6.4109527738627518E-03
(PID.TID 0000.0001) %MON trcstat_ptracer22_min        =  -3.2230547238265865E-15
(PID.TID 0000.0001) %MON trcstat_ptracer22_mean       =   1.2967119813608279E-05
(PID.TID 0000.0001) %MON trcstat_ptracer22_sd         =   2.0273445220810778E-04
(PID.TID 0000.0001) %MON trcstat_ptracer22_del2       =   5.5652779633348479E-06
(PID.TID 0000.0001) %MON trcstat_ptracer23_max        =   1.1517848402057891E+00
(PID.TID 0000.0001) %MON trcstat_ptracer23_min        =   1.5423096199214343E-17
(PID.TID 0000.0001) %MON trcstat_ptracer23_mean       =   2.9401293179493044E-02
(PID.TID 0000.0001) %MON trcstat_ptracer23_sd         =   8.0674487952345372E-02
(PID.TID 0000.0001) %MON trcstat_ptracer23_del2       =   6.3366809309891496E-04
(PID.TID 0000.0001) %MON trcstat_ptracer24_max        =   1.1038604933222514E+01
(PID.TID 0000.0001) %MON trcstat_ptracer24_min        =   8.0446875505936969E-22
(PID.TID 0000.0001) %MON trcstat_ptracer24_mean       =   1.9351872540802587E-01
(PID.TID 0000.0001) %MON trcstat_ptracer24_sd         =   7.0270061627186364E-01
(PID.TID 0000.0001) %MON trcstat_ptracer24_del2       =   5.5245363739190086E-03
(PID.TID 0000.0001) %MON trcstat_ptracer25_max        =   1.2696791002859653E-01
(PID.TID 0000.0001) %MON trcstat_ptracer25_min        =   1.1999999999984850E-48
(PID.TID 0000.0001) %MON trcstat_ptracer25_mean       =   3.6198656081531830E-04
(PID.TID 0000.0001) %MON trcstat_ptracer25_sd         =   2.9180702325428140E-03
(PID.TID 0000.0001) %MON trcstat_ptracer25_del2       =   2.0422880095366361E-05
(PID.TID 0000.0001) %MON trcstat_ptracer26_max        =   1.5552328003122986E+00
(PID.TID 0000.0001) %MON trcstat_ptracer26_min        =   1.4779423779025830E-27
(PID.TID 0000.0001) %MON trcstat_ptracer26_mean       =   1.6649456497786180E-02
(PID.TID 0000.0001) %MON trcstat_ptracer26_sd         =   8.6299933901428774E-02
(PID.TID 0000.0001) %MON trcstat_ptracer26_del2       =   8.7085056213624277E-04
(PID.TID 0000.0001) %MON trcstat_ptracer27_max        =   6.6986089602836712E-03
(PID.TID 0000.0001) %MON trcstat_ptracer27_min        =   1.5059278158114104E-12
(PID.TID 0000.0001) %MON trcstat_ptracer27_mean       =   1.4435727100218806E-05
(PID.TID 0000.0001) %MON trcstat_ptracer27_sd         =   2.1627586303502353E-04
(PID.TID 0000.0001) %MON trcstat_ptracer27_del2       =   5.4671754049468406E-06
(PID.TID 0000.0001) %MON trcstat_ptracer28_max        =   6.5062053381030544E-03
(PID.TID 0000.0001) %MON trcstat_ptracer28_min        =  -6.5388706433223866E-17
(PID.TID 0000.0001) %MON trcstat_ptracer28_mean       =   1.3959903142576153E-05
(PID.TID 0000.0001) %MON trcstat_ptracer28_sd         =   2.1113802623847264E-04
(PID.TID 0000.0001) %MON trcstat_ptracer28_del2       =   5.4589363066616875E-06
(PID.TID 0000.0001) %MON trcstat_ptracer29_max        =   6.3155722167321541E-03
(PID.TID 0000.0001) %MON trcstat_ptracer29_min        =  -2.4741992951223586E-19
(PID.TID 0000.0001) %MON trcstat_ptracer29_mean       =   1.2822473453788239E-05
(PID.TID 0000.0001) %MON trcstat_ptracer29_sd         =   2.0012530250782017E-04
(PID.TID 0000.0001) %MON trcstat_ptracer29_del2       =   5.5554133319953175E-06
(PID.TID 0000.0001) %MON trcstat_ptracer30_max        =   6.7244892351782399E-03
(PID.TID 0000.0001) %MON trcstat_ptracer30_min        =   6.8267077548136077E-49
(PID.TID 0000.0001) %MON trcstat_ptracer30_mean       =   1.5036712095956330E-05
(PID.TID 0000.0001) %MON trcstat_ptracer30_sd         =   2.1706234643770219E-04
(PID.TID 0000.0001) %MON trcstat_ptracer30_del2       =   5.4362087437580375E-06
(PID.TID 0000.0001) %MON trcstat_ptracer31_max        =   6.4249531456716247E-03
(PID.TID 0000.0001) %MON trcstat_ptracer31_min        =  -3.1169095672137343E-15
(PID.TID 0000.0001) %MON trcstat_ptracer31_mean       =   1.2970701116268703E-05
(PID.TID 0000.0001) %MON trcstat_ptracer31_sd         =   2.0255856520487865E-04
(PID.TID 0000.0001) %MON trcstat_ptracer31_del2       =   5.5632293535398798E-06
(PID.TID 0000.0001) %MON trcstat_ptracer32_max        =   6.7244892284511956E-03
(PID.TID 0000.0001) %MON trcstat_ptracer32_min        =  -7.0632941367040027E-17
(PID.TID 0000.0001) %MON trcstat_ptracer32_mean       =   1.5015927312441225E-05
(PID.TID 0000.0001) %MON trcstat_ptracer32_sd         =   2.1672076057081818E-04
(PID.TID 0000.0001) %MON trcstat_ptracer32_del2       =   5.4423140494013810E-06
(PID.TID 0000.0001) %MON trcstat_ptracer33_max        =   6.9385559011677853E-03
(PID.TID 0000.0001) %MON trcstat_ptracer33_min        =  -4.6575237761443467E-34
(PID.TID 0000.0001) %MON trcstat_ptracer33_mean       =   1.5721168604876816E-05
(PID.TID 0000.0001) %MON trcstat_ptracer33_sd         =   2.2235793417311591E-04
(PID.TID 0000.0001) %MON trcstat_ptracer33_del2       =   5.4491848180060716E-06
(PID.TID 0000.0001) %MON trcstat_ptracer34_max        =   8.5195631895467663E-03
(PID.TID 0000.0001) %MON trcstat_ptracer34_min        =   1.1859618317488902E-48
(PID.TID 0000.0001) %MON trcstat_ptracer34_mean       =   2.1152152173336323E-05
(PID.TID 0000.0001) %MON trcstat_ptracer34_sd         =   2.7222467946588953E-04
(PID.TID 0000.0001) %MON trcstat_ptracer34_del2       =   5.2112665662842232E-06
(PID.TID 0000.0001) %MON trcstat_ptracer35_max        =   3.3770810802406387E-01
(PID.TID 0000.0001) %MON trcstat_ptracer35_min        =   8.9061262985505214E-31
(PID.TID 0000.0001) %MON trcstat_ptracer35_mean       =   2.2326350961560789E-03
(PID.TID 0000.0001) %MON trcstat_ptracer35_sd         =   1.6165347626291876E-02
(PID.TID 0000.0001) %MON trcstat_ptracer35_del2       =   1.2060778961725628E-04
(PID.TID 0000.0001) %MON trcstat_ptracer36_max        =   6.7244892284548767E-03
(PID.TID 0000.0001) %MON trcstat_ptracer36_min        =  -8.5063446367294955E-17
(PID.TID 0000.0001) %MON trcstat_ptracer36_mean       =   1.5015927111168348E-05
(PID.TID 0000.0001) %MON trcstat_ptracer36_sd         =   2.1672076058577459E-04
(PID.TID 0000.0001) %MON trcstat_ptracer36_del2       =   5.4423140493785568E-06
(PID.TID 0000.0001) %MON trcstat_ptracer37_max        =   6.7378028783546809E-03
(PID.TID 0000.0001) %MON trcstat_ptracer37_min        =  -5.8380408965737601E-16
(PID.TID 0000.0001) %MON trcstat_ptracer37_mean       =   1.5061606330204790E-05
(PID.TID 0000.0001) %MON trcstat_ptracer37_sd         =   2.1719485154696110E-04
(PID.TID 0000.0001) %MON trcstat_ptracer37_del2       =   5.4364341370440286E-06
(PID.TID 0000.0001) %MON trcstat_ptracer38_max        =   6.4241508501687835E-03
(PID.TID 0000.0001) %MON trcstat_ptracer38_min        =   8.9044074200497033E-15
(PID.TID 0000.0001) %MON trcstat_ptracer38_mean       =   1.3029261441639847E-05
(PID.TID 0000.0001) %MON trcstat_ptracer38_sd         =   2.0188509090269394E-04
(PID.TID 0000.0001) %MON trcstat_ptracer38_del2       =   5.5785960730647149E-06
(PID.TID 0000.0001) %MON trcstat_ptracer39_max        =   1.2433525419415631E-01
(PID.TID 0000.0001) %MON trcstat_ptracer39_min        =   6.4909882706256009E-12
(PID.TID 0000.0001) %MON trcstat_ptracer39_mean       =   2.7538028897186491E-03
(PID.TID 0000.0001) %MON trcstat_ptracer39_sd         =   9.8809185221468299E-03
(PID.TID 0000.0001) %MON trcstat_ptracer39_del2       =   7.7059635172076958E-05
(PID.TID 0000.0001) %MON trcstat_ptracer40_max        =   6.7244893063833312E-03
(PID.TID 0000.0001) %MON trcstat_ptracer40_min        =  -1.6270224190468850E-29
(PID.TID 0000.0001) %MON trcstat_ptracer40_mean       =   1.5018210869351492E-05
(PID.TID 0000.0001) %MON trcstat_ptracer40_sd         =   2.1672060316126166E-04
(PID.TID 0000.0001) %MON trcstat_ptracer40_del2       =   5.4423141403482546E-06
(PID.TID 0000.0001) %MON trcstat_ptracer41_max        =   1.2555818830656908E-02
(PID.TID 0000.0001) %MON trcstat_ptracer41_min        =   1.6924005669966426E-48
(PID.TID 0000.0001) %MON trcstat_ptracer41_mean       =   4.4467081033468387E-05
(PID.TID 0000.0001) %MON trcstat_ptracer41_sd         =   4.7182415702184450E-04
(PID.TID 0000.0001) %MON trcstat_ptracer41_del2       =   5.5140065434173863E-06
(PID.TID 0000.0001) %MON trcstat_ptracer42_max        =   6.6018125019926474E-03
(PID.TID 0000.0001) %MON trcstat_ptracer42_min        =  -7.4252268915075451E-19
(PID.TID 0000.0001) %MON trcstat_ptracer42_mean       =   1.4125214401557280E-05
(PID.TID 0000.0001) %MON trcstat_ptracer42_sd         =   2.1391530872244934E-04
(PID.TID 0000.0001) %MON trcstat_ptracer42_del2       =   5.4627040629118961E-06
(PID.TID 0000.0001) %MON trcstat_ptracer43_max        =   6.7304586754069291E-03
(PID.TID 0000.0001) %MON trcstat_ptracer43_min        =  -6.2145536913585700E-17
(PID.TID 0000.0001) %MON trcstat_ptracer43_mean       =   1.5036460391872740E-05
(PID.TID 0000.0001) %MON trcstat_ptracer43_sd         =   2.1694691386397715E-04
(PID.TID 0000.0001) %MON trcstat_ptracer43_del2       =   5.4413752550257877E-06
(PID.TID 0000.0001) %MON trcstat_ptracer44_max        =   6.7304586758467596E-03
(PID.TID 0000.0001) %MON trcstat_ptracer44_min        =  -9.3085738350960477E-33
(PID.TID 0000.0001) %MON trcstat_ptracer44_mean       =   1.5036513749600978E-05
(PID.TID 0000.0001) %MON trcstat_ptracer44_sd         =   2.1694691010216814E-04
(PID.TID 0000.0001) %MON trcstat_ptracer44_del2       =   5.4413752579054677E-06
(PID.TID 0000.0001) %MON trcstat_ptracer45_max        =   6.7305290630144798E-03
(PID.TID 0000.0001) %MON trcstat_ptracer45_min        =   9.3910798493587511E-49
(PID.TID 0000.0001) %MON trcstat_ptracer45_mean       =   1.6648908518121666E-05
(PID.TID 0000.0001) %MON trcstat_ptracer45_sd         =   2.1692137407684352E-04
(PID.TID 0000.0001) %MON trcstat_ptracer45_del2       =   5.4416788369568201E-06
(PID.TID 0000.0001) %MON trcstat_ptracer46_max        =   6.8064286266924633E-03
(PID.TID 0000.0001) %MON trcstat_ptracer46_min        =   1.1527134150097518E-48
(PID.TID 0000.0001) %MON trcstat_ptracer46_mean       =   1.9809632694116810E-05
(PID.TID 0000.0001) %MON trcstat_ptracer46_sd         =   2.7207992673185867E-04
(PID.TID 0000.0001) %MON trcstat_ptracer46_del2       =   4.9317347404672047E-06
(PID.TID 0000.0001) %MON trcstat_ptracer47_max        =   6.7469453720799552E-03
(PID.TID 0000.0001) %MON trcstat_ptracer47_min        =   1.2000000927054096E-48
(PID.TID 0000.0001) %MON trcstat_ptracer47_mean       =   1.6945857056767435E-05
(PID.TID 0000.0001) %MON trcstat_ptracer47_sd         =   2.1851202844591305E-04
(PID.TID 0000.0001) %MON trcstat_ptracer47_del2       =   5.4282552454752934E-06
(PID.TID 0000.0001) %MON trcstat_ptracer48_max        =   6.9547398853488825E-03
(PID.TID 0000.0001) %MON trcstat_ptracer48_min        =   5.4039469584845650E-48
(PID.TID 0000.0001) %MON trcstat_ptracer48_mean       =   1.7686319888827507E-05
(PID.TID 0000.0001) %MON trcstat_ptracer48_sd         =   2.5868588947798425E-04
(PID.TID 0000.0001) %MON trcstat_ptracer48_del2       =   5.0260771921696390E-06
(PID.TID 0000.0001) %MON trcstat_ptracer49_max        =   6.3155722169534086E-03
(PID.TID 0000.0001) %MON trcstat_ptracer49_min        =  -3.0893279412041165E-15
(PID.TID 0000.0001) %MON trcstat_ptracer49_mean       =   1.2822473434404680E-05
(PID.TID 0000.0001) %MON trcstat_ptracer49_sd         =   2.0012530251780871E-04
(PID.TID 0000.0001) %MON trcstat_ptracer49_del2       =   5.5554133319265308E-06
(PID.TID 0000.0001) %MON trcstat_ptracer50_max        =   6.7304586755216559E-03
(PID.TID 0000.0001) %MON trcstat_ptracer50_min        =  -5.1039529408168133E-16
(PID.TID 0000.0001) %MON trcstat_ptracer50_mean       =   1.5036458109512083E-05
(PID.TID 0000.0001) %MON trcstat_ptracer50_sd         =   2.1694691403685432E-04
(PID.TID 0000.0001) %MON trcstat_ptracer50_del2       =   5.4413752547355595E-06
(PID.TID 0000.0001) %MON trcstat_ptracer51_max        =   6.3155722169330316E-03
(PID.TID 0000.0001) %MON trcstat_ptracer51_min        =  -2.5596265557210582E-21
(PID.TID 0000.0001) %MON trcstat_ptracer51_mean       =   1.2822473472188294E-05
(PID.TID 0000.0001) %MON trcstat_ptracer51_sd         =   2.0012530251513734E-04
(PID.TID 0000.0001) %MON trcstat_ptracer51_del2       =   5.5554133319266595E-06
(PID.TID 0000.0001) %MON trcstat_ptracer52_max        =   3.5090299634477309E+00
(PID.TID 0000.0001) %MON trcstat_ptracer52_min        =   5.3533790939141726E-39
(PID.TID 0000.0001) %MON trcstat_ptracer52_mean       =   3.9787379831736774E-02
(PID.TID 0000.0001) %MON trcstat_ptracer52_sd         =   2.2088527015070061E-01
(PID.TID 0000.0001) %MON trcstat_ptracer52_del2       =   1.1295327971175234E-03
(PID.TID 0000.0001) %MON trcstat_ptracer53_max        =   6.3646411294859526E-02
(PID.TID 0000.0001) %MON trcstat_ptracer53_min        =   1.9529042022106452E-42
(PID.TID 0000.0001) %MON trcstat_ptracer53_mean       =   1.1541879313537328E-04
(PID.TID 0000.0001) %MON trcstat_ptracer53_sd         =   1.1502265438625733E-03
(PID.TID 0000.0001) %MON trcstat_ptracer53_del2       =   1.0684081307765337E-05
(PID.TID 0000.0001) %MON trcstat_ptracer54_max        =   1.3064507098825291E-02
(PID.TID 0000.0001) %MON trcstat_ptracer54_min        =   1.1919965850379976E-31
(PID.TID 0000.0001) %MON trcstat_ptracer54_mean       =   2.6580497291341491E-05
(PID.TID 0000.0001) %MON trcstat_ptracer54_sd         =   4.0189701776247201E-04
(PID.TID 0000.0001) %MON trcstat_ptracer54_del2       =   5.3471951708120957E-06
(PID.TID 0000.0001) %MON trcstat_ptracer55_max        =   9.3783022242543788E-03
(PID.TID 0000.0001) %MON trcstat_ptracer55_min        =   1.1755343256014461E-48
(PID.TID 0000.0001) %MON trcstat_ptracer55_mean       =   2.4673496871155062E-05
(PID.TID 0000.0001) %MON trcstat_ptracer55_sd         =   3.0877801204073457E-04
(PID.TID 0000.0001) %MON trcstat_ptracer55_del2       =   4.9953664975978744E-06
(PID.TID 0000.0001) %MON trcstat_ptracer56_max        =   9.2378149420161496E-03
(PID.TID 0000.0001) %MON trcstat_ptracer56_min        =  -7.4390681947001014E-30
(PID.TID 0000.0001) %MON trcstat_ptracer56_mean       =   2.4882157247784316E-05
(PID.TID 0000.0001) %MON trcstat_ptracer56_sd         =   3.5343006560247393E-04
(PID.TID 0000.0001) %MON trcstat_ptracer56_del2       =   4.7535938957044350E-06
(PID.TID 0000.0001) %MON trcstat_ptracer57_max        =   8.3454935721247563E-03
(PID.TID 0000.0001) %MON trcstat_ptracer57_min        =   7.9746805364134949E-28
(PID.TID 0000.0001) %MON trcstat_ptracer57_mean       =   1.8398932304379198E-05
(PID.TID 0000.0001) %MON trcstat_ptracer57_sd         =   2.8865072143784615E-04
(PID.TID 0000.0001) %MON trcstat_ptracer57_del2       =   4.9601298172716649E-06
(PID.TID 0000.0001) %MON trcstat_ptracer58_max        =   8.3804008441666980E-03
(PID.TID 0000.0001) %MON trcstat_ptracer58_min        =   1.1913559149597614E-48
(PID.TID 0000.0001) %MON trcstat_ptracer58_mean       =   2.0706674528747580E-05
(PID.TID 0000.0001) %MON trcstat_ptracer58_sd         =   2.6732184903795620E-04
(PID.TID 0000.0001) %MON trcstat_ptracer58_del2       =   5.2698747885760770E-06
(PID.TID 0000.0001) %MON trcstat_ptracer59_max        =   8.1283052150796752E-03
(PID.TID 0000.0001) %MON trcstat_ptracer59_min        =   1.1494762879643759E-48
(PID.TID 0000.0001) %MON trcstat_ptracer59_mean       =   2.9196094550011053E-05
(PID.TID 0000.0001) %MON trcstat_ptracer59_sd         =   3.5640898243116870E-04
(PID.TID 0000.0001) %MON trcstat_ptracer59_del2       =   4.6304772919835576E-06
(PID.TID 0000.0001) %MON trcstat_ptracer60_max        =   5.5347192662516739E-02
(PID.TID 0000.0001) %MON trcstat_ptracer60_min        =  -2.1475437762940671E-22
(PID.TID 0000.0001) %MON trcstat_ptracer60_mean       =   2.1849550246727287E-04
(PID.TID 0000.0001) %MON trcstat_ptracer60_sd         =   2.0465400134837683E-03
(PID.TID 0000.0001) %MON trcstat_ptracer60_del2       =   2.7194518334985608E-05
(PID.TID 0000.0001) %MON trcstat_ptracer61_max        =   6.5133030348178585E-03
(PID.TID 0000.0001) %MON trcstat_ptracer61_min        =   4.9242162195971442E-16
(PID.TID 0000.0001) %MON trcstat_ptracer61_mean       =   1.3982165650467047E-05
(PID.TID 0000.0001) %MON trcstat_ptracer61_sd         =   2.1136421017808229E-04
(PID.TID 0000.0001) %MON trcstat_ptracer61_del2       =   5.4539877399910534E-06
(PID.TID 0000.0001) %MON trcstat_ptracer62_max        =   6.7378028782374205E-03
(PID.TID 0000.0001) %MON trcstat_ptracer62_min        =  -6.1481025941139721E-17
(PID.TID 0000.0001) %MON trcstat_ptracer62_mean       =   1.5061609395411647E-05
(PID.TID 0000.0001) %MON trcstat_ptracer62_sd         =   2.1719485131591404E-04
(PID.TID 0000.0001) %MON trcstat_ptracer62_del2       =   5.4364341374452689E-06
(PID.TID 0000.0001) %MON trcstat_ptracer63_max        =   6.3155722169023843E-03
(PID.TID 0000.0001) %MON trcstat_ptracer63_min        =  -3.1666208774624068E-15
(PID.TID 0000.0001) %MON trcstat_ptracer63_mean       =   1.2823897098499201E-05
(PID.TID 0000.0001) %MON trcstat_ptracer63_sd         =   2.0014745277696907E-04
(PID.TID 0000.0001) %MON trcstat_ptracer63_del2       =   5.5548600772406673E-06
(PID.TID 0000.0001) %MON trcstat_ptracer64_max        =   6.4234646975450489E-03
(PID.TID 0000.0001) %MON trcstat_ptracer64_min        =  -7.6685469242906292E-23
(PID.TID 0000.0001) %MON trcstat_ptracer64_mean       =   1.3054023422706060E-05
(PID.TID 0000.0001) %MON trcstat_ptracer64_sd         =   2.0387684718616285E-04
(PID.TID 0000.0001) %MON trcstat_ptracer64_del2       =   5.5516393187083839E-06
(PID.TID 0000.0001) %MON trcstat_ptracer65_max        =   6.7378028781089746E-03
(PID.TID 0000.0001) %MON trcstat_ptracer65_min        =  -7.0363779823151999E-17
(PID.TID 0000.0001) %MON trcstat_ptracer65_mean       =   1.5061606907395246E-05
(PID.TID 0000.0001) %MON trcstat_ptracer65_sd         =   2.1719485148564925E-04
(PID.TID 0000.0001) %MON trcstat_ptracer65_del2       =   5.4364341372256350E-06
(PID.TID 0000.0001) %MON trcstat_ptracer66_max        =   6.7304586755305906E-03
(PID.TID 0000.0001) %MON trcstat_ptracer66_min        =  -3.2070499543220033E-16
(PID.TID 0000.0001) %MON trcstat_ptracer66_mean       =   1.5036458111466205E-05
(PID.TID 0000.0001) %MON trcstat_ptracer66_sd         =   2.1694691403743597E-04
(PID.TID 0000.0001) %MON trcstat_ptracer66_del2       =   5.4413752547328101E-06
(PID.TID 0000.0001) %MON trcstat_ptracer67_max        =   1.3831472366728742E-02
(PID.TID 0000.0001) %MON trcstat_ptracer67_min        =   9.3922135190325412E-29
(PID.TID 0000.0001) %MON trcstat_ptracer67_mean       =   3.0216729792730794E-05
(PID.TID 0000.0001) %MON trcstat_ptracer67_sd         =   4.2327835369735349E-04
(PID.TID 0000.0001) %MON trcstat_ptracer67_del2       =   5.5429212544233336E-06
(PID.TID 0000.0001) %MON trcstat_ptracer68_max        =   6.7573238373890600E-03
(PID.TID 0000.0001) %MON trcstat_ptracer68_min        =   1.1981314866944618E-48
(PID.TID 0000.0001) %MON trcstat_ptracer68_mean       =   1.5079775307370937E-05
(PID.TID 0000.0001) %MON trcstat_ptracer68_sd         =   2.1742150630808810E-04
(PID.TID 0000.0001) %MON trcstat_ptracer68_del2       =   5.4383498731693804E-06
(PID.TID 0000.0001) %MON trcstat_ptracer69_max        =   2.3244535997500497E+00
(PID.TID 0000.0001) %MON trcstat_ptracer69_min        =  -4.6288312588733267E-17
(PID.TID 0000.0001) %MON trcstat_ptracer69_mean       =   7.5290671349447655E-02
(PID.TID 0000.0001) %MON trcstat_ptracer69_sd         =   2.0235868240535704E-01
(PID.TID 0000.0001) %MON trcstat_ptracer69_del2       =   1.2135566798487257E-03
(PID.TID 0000.0001) %MON trcstat_ptracer70_max        =   6.5133025081424286E-03
(PID.TID 0000.0001) %MON trcstat_ptracer70_min        =  -1.6034012013721475E-16
(PID.TID 0000.0001) %MON trcstat_ptracer70_mean       =   1.3981297323819242E-05
(PID.TID 0000.0001) %MON trcstat_ptracer70_sd         =   2.1136422543518250E-04
(PID.TID 0000.0001) %MON trcstat_ptracer70_del2       =   5.4539879745295798E-06
(PID.TID 0000.0001) %MON trcstat_ptracer71_max        =   6.5145839831114386E-03
(PID.TID 0000.0001) %MON trcstat_ptracer71_min        =   5.9779403838449433E-35
(PID.TID 0000.0001) %MON trcstat_ptracer71_mean       =   1.6668928318125147E-05
(PID.TID 0000.0001) %MON trcstat_ptracer71_sd         =   2.1911184601514371E-04
(PID.TID 0000.0001) %MON trcstat_ptracer71_del2       =   5.3521879333310090E-06
(PID.TID 0000.0001) %MON trcstat_ptracer72_max        =   6.3086919030923248E-03
(PID.TID 0000.0001) %MON trcstat_ptracer72_min        =  -2.9402794344086504E-17
(PID.TID 0000.0001) %MON trcstat_ptracer72_mean       =   1.2803702054749289E-05
(PID.TID 0000.0001) %MON trcstat_ptracer72_sd         =   1.9991263456878956E-04
(PID.TID 0000.0001) %MON trcstat_ptracer72_del2       =   5.5601839690727579E-06
(PID.TID 0000.0001) %MON trcstat_ptracer73_max        =   6.3030987638640294E-03
(PID.TID 0000.0001) %MON trcstat_ptracer73_min        =   8.1417675722813710E-27
(PID.TID 0000.0001) %MON trcstat_ptracer73_mean       =   1.2787712765280201E-05
(PID.TID 0000.0001) %MON trcstat_ptracer73_sd         =   1.9971096741710985E-04
(PID.TID 0000.0001) %MON trcstat_ptracer73_del2       =   5.5611020656913493E-06
(PID.TID 0000.0001) %MON trcstat_ptracer74_max        =   6.3155721372930200E-03
(PID.TID 0000.0001) %MON trcstat_ptracer74_min        =  -1.6398763898201870E-15
(PID.TID 0000.0001) %MON trcstat_ptracer74_mean       =   1.2836061009426022E-05
(PID.TID 0000.0001) %MON trcstat_ptracer74_sd         =   2.0037693690196190E-04
(PID.TID 0000.0001) %MON trcstat_ptracer74_del2       =   5.5540506570728126E-06
(PID.TID 0000.0001) %MON trcstat_ptracer75_max        =   1.1427395388437974E+01
(PID.TID 0000.0001) %MON trcstat_ptracer75_min        =   3.8980435534586580E-13
(PID.TID 0000.0001) %MON trcstat_ptracer75_mean       =   8.1010087860676616E-01
(PID.TID 0000.0001) %MON trcstat_ptracer75_sd         =   1.2400672189466169E+00
(PID.TID 0000.0001) %MON trcstat_ptracer75_del2       =   7.4639742496586106E-03
(PID.TID 0000.0001) %MON trcstat_ptracer76_max        =   6.8401173738139734E-03
(PID.TID 0000.0001) %MON trcstat_ptracer76_min        =  -1.7769309123348039E-21
(PID.TID 0000.0001) %MON trcstat_ptracer76_mean       =   1.5212716752305886E-05
(PID.TID 0000.0001) %MON trcstat_ptracer76_sd         =   2.2007433070328413E-04
(PID.TID 0000.0001) %MON trcstat_ptracer76_del2       =   5.4487618907668823E-06
(PID.TID 0000.0001) %MON trcstat_ptracer77_max        =   6.7537914448505213E-03
(PID.TID 0000.0001) %MON trcstat_ptracer77_min        =   1.0472863993921089E-48
(PID.TID 0000.0001) %MON trcstat_ptracer77_mean       =   1.7005710304814364E-05
(PID.TID 0000.0001) %MON trcstat_ptracer77_sd         =   2.4224332127500167E-04
(PID.TID 0000.0001) %MON trcstat_ptracer77_del2       =   5.1589286345671794E-06
(PID.TID 0000.0001) %MON trcstat_ptracer78_max        =   1.7672066272155909E-02
(PID.TID 0000.0001) %MON trcstat_ptracer78_min        =   3.8618525447711414E-49
(PID.TID 0000.0001) %MON trcstat_ptracer78_mean       =   6.2585349797656889E-05
(PID.TID 0000.0001) %MON trcstat_ptracer78_sd         =   6.2944246668932837E-04
(PID.TID 0000.0001) %MON trcstat_ptracer78_del2       =   5.5014095024347349E-06
(PID.TID 0000.0001) %MON trcstat_ptracer79_max        =   2.5135428684034213E+00
(PID.TID 0000.0001) %MON trcstat_ptracer79_min        =   2.6042722963184510E-33
(PID.TID 0000.0001) %MON trcstat_ptracer79_mean       =   1.5892264860559873E-02
(PID.TID 0000.0001) %MON trcstat_ptracer79_sd         =   9.9368803360007377E-02
(PID.TID 0000.0001) %MON trcstat_ptracer79_del2       =   5.7894764142056544E-04
(PID.TID 0000.0001) %MON trcstat_ptracer80_max        =   2.3374419535715639E-02
(PID.TID 0000.0001) %MON trcstat_ptracer80_min        =  -4.3001544463785393E-26
(PID.TID 0000.0001) %MON trcstat_ptracer80_mean       =   6.5187845544709713E-05
(PID.TID 0000.0001) %MON trcstat_ptracer80_sd         =   7.9941974381550788E-04
(PID.TID 0000.0001) %MON trcstat_ptracer80_del2       =   8.7929058202682296E-06
(PID.TID 0000.0001) %MON trcstat_ptracer81_max        =   6.9260744403663310E-03
(PID.TID 0000.0001) %MON trcstat_ptracer81_min        =   1.0114870443563741E-48
(PID.TID 0000.0001) %MON trcstat_ptracer81_mean       =   1.5331668828153220E-05
(PID.TID 0000.0001) %MON trcstat_ptracer81_sd         =   2.2108073446786217E-04
(PID.TID 0000.0001) %MON trcstat_ptracer81_del2       =   5.4632100280752479E-06
(PID.TID 0000.0001) %MON trcstat_ptracer82_max        =   6.3155722169578642E-03
(PID.TID 0000.0001) %MON trcstat_ptracer82_min        =  -3.0885462888209917E-15
(PID.TID 0000.0001) %MON trcstat_ptracer82_mean       =   1.2822473434426169E-05
(PID.TID 0000.0001) %MON trcstat_ptracer82_sd         =   2.0012530251806572E-04
(PID.TID 0000.0001) %MON trcstat_ptracer82_del2       =   5.5554133319240888E-06
(PID.TID 0000.0001) %MON trcstat_ptracer83_max        =   6.7479509047932698E-03
(PID.TID 0000.0001) %MON trcstat_ptracer83_min        =  -2.2534293845650168E-16
(PID.TID 0000.0001) %MON trcstat_ptracer83_mean       =   1.5145573723155435E-05
(PID.TID 0000.0001) %MON trcstat_ptracer83_sd         =   2.1852370016264548E-04
(PID.TID 0000.0001) %MON trcstat_ptracer83_del2       =   5.4273082288134552E-06
(PID.TID 0000.0001) %MON trcstat_ptracer84_max        =   6.8470566441528298E-03
(PID.TID 0000.0001) %MON trcstat_ptracer84_min        =  -1.3626434516072474E-16
(PID.TID 0000.0001) %MON trcstat_ptracer84_mean       =   1.5306296584770617E-05
(PID.TID 0000.0001) %MON trcstat_ptracer84_sd         =   2.2098049048564769E-04
(PID.TID 0000.0001) %MON trcstat_ptracer84_del2       =   5.4311374753575996E-06
(PID.TID 0000.0001) %MON trcstat_ptracer85_max        =   7.5071735119163545E+00
(PID.TID 0000.0001) %MON trcstat_ptracer85_min        =   5.5515350151856556E-28
(PID.TID 0000.0001) %MON trcstat_ptracer85_mean       =   4.3987397743717149E-01
(PID.TID 0000.0001) %MON trcstat_ptracer85_sd         =   9.5337139987863118E-01
(PID.TID 0000.0001) %MON trcstat_ptracer85_del2       =   3.5962934420431412E-03
(PID.TID 0000.0001) %MON trcstat_ptracer86_max        =   6.6884420364254141E-03
(PID.TID 0000.0001) %MON trcstat_ptracer86_min        =  -1.6307328206467865E-16
(PID.TID 0000.0001) %MON trcstat_ptracer86_mean       =   1.4267198325018987E-05
(PID.TID 0000.0001) %MON trcstat_ptracer86_sd         =   2.1607064402180345E-04
(PID.TID 0000.0001) %MON trcstat_ptracer86_del2       =   5.4686259837363608E-06
(PID.TID 0000.0001) %MON trcstat_ptracer87_max        =   2.9312459471327434E-02
(PID.TID 0000.0001) %MON trcstat_ptracer87_min        =   2.8422496047661114E-22
(PID.TID 0000.0001) %MON trcstat_ptracer87_mean       =   6.7292331573415824E-05
(PID.TID 0000.0001) %MON trcstat_ptracer87_sd         =   8.6735133165552795E-04
(PID.TID 0000.0001) %MON trcstat_ptracer87_del2       =   1.1963682971097427E-05
(PID.TID 0000.0001) %MON trcstat_ptracer88_max        =   3.8719195351790400E-02
(PID.TID 0000.0001) %MON trcstat_ptracer88_min        =   1.0759003949517480E-40
(PID.TID 0000.0001) %MON trcstat_ptracer88_mean       =   1.9696722995037101E-04
(PID.TID 0000.0001) %MON trcstat_ptracer88_sd         =   1.6264080726477081E-03
(PID.TID 0000.0001) %MON trcstat_ptracer88_del2       =   1.2078052357398853E-05
(PID.TID 0000.0001) %MON trcstat_ptracer89_max        =   8.8107557136022696E-01
(PID.TID 0000.0001) %MON trcstat_ptracer89_min        =   4.0869033672110881E-31
(PID.TID 0000.0001) %MON trcstat_ptracer89_mean       =   1.2869714534549527E-02
(PID.TID 0000.0001) %MON trcstat_ptracer89_sd         =   5.0957695090706488E-02
(PID.TID 0000.0001) %MON trcstat_ptracer89_del2       =   4.0562331139746573E-04
(PID.TID 0000.0001) %MON trcstat_ptracer90_max        =   6.3155729710699408E-03
(PID.TID 0000.0001) %MON trcstat_ptracer90_min        =   1.4894957237674178E-26
(PID.TID 0000.0001) %MON trcstat_ptracer90_mean       =   1.2822614808492353E-05
(PID.TID 0000.0001) %MON trcstat_ptracer90_sd         =   2.0012534320740675E-04
(PID.TID 0000.0001) %MON trcstat_ptracer90_del2       =   5.5554130813321467E-06
(PID.TID 0000.0001) %MON trcstat_ptracer91_max        =   6.7244892285937613E-03
(PID.TID 0000.0001) %MON trcstat_ptracer91_min        =  -5.0819751305603917E-16
(PID.TID 0000.0001) %MON trcstat_ptracer91_mean       =   1.5015927005901255E-05
(PID.TID 0000.0001) %MON trcstat_ptracer91_sd         =   2.1672076060417830E-04
(PID.TID 0000.0001) %MON trcstat_ptracer91_del2       =   5.4423140493188046E-06
(PID.TID 0000.0001) %MON trcstat_ptracer92_max        =   6.3155722168646228E-03
(PID.TID 0000.0001) %MON trcstat_ptracer92_min        =  -3.2229875517396458E-15
(PID.TID 0000.0001) %MON trcstat_ptracer92_mean       =   1.2822473434147571E-05
(PID.TID 0000.0001) %MON trcstat_ptracer92_sd         =   2.0012530251411467E-04
(PID.TID 0000.0001) %MON trcstat_ptracer92_del2       =   5.5554133319618893E-06
(PID.TID 0000.0001) %MON trcstat_ptracer93_max        =   9.6904378857971915E-02
(PID.TID 0000.0001) %MON trcstat_ptracer93_min        =   1.2000000000826997E-48
(PID.TID 0000.0001) %MON trcstat_ptracer93_mean       =   1.8853511032679280E-04
(PID.TID 0000.0001) %MON trcstat_ptracer93_sd         =   1.8935875124945637E-03
(PID.TID 0000.0001) %MON trcstat_ptracer93_del2       =   1.5856909322433048E-05
(PID.TID 0000.0001) %MON trcstat_ptracer94_max        =   8.8173759917433790E-03
(PID.TID 0000.0001) %MON trcstat_ptracer94_min        =  -1.2171219585656920E-21
(PID.TID 0000.0001) %MON trcstat_ptracer94_mean       =   2.4717802745429019E-05
(PID.TID 0000.0001) %MON trcstat_ptracer94_sd         =   3.4483452707801071E-04
(PID.TID 0000.0001) %MON trcstat_ptracer94_del2       =   4.7263928204662340E-06
(PID.TID 0000.0001) %MON trcstat_ptracer95_max        =   6.5004360287542369E-03
(PID.TID 0000.0001) %MON trcstat_ptracer95_min        =  -1.1857703988013951E-19
(PID.TID 0000.0001) %MON trcstat_ptracer95_mean       =   1.3941899414676699E-05
(PID.TID 0000.0001) %MON trcstat_ptracer95_sd         =   2.1092312875332082E-04
(PID.TID 0000.0001) %MON trcstat_ptracer95_del2       =   5.4598917551493843E-06
(PID.TID 0000.0001) %MON trcstat_ptracer96_max        =   8.3778260652270076E-01
(PID.TID 0000.0001) %MON trcstat_ptracer96_min        =   8.2677998420472030E-31
(PID.TID 0000.0001) %MON trcstat_ptracer96_mean       =   5.6501319087068007E-02
(PID.TID 0000.0001) %MON trcstat_ptracer96_sd         =   1.3278398920256623E-01
(PID.TID 0000.0001) %MON trcstat_ptracer96_del2       =   4.3216679300316351E-04
(PID.TID 0000.0001) %MON trcstat_ptracer97_max        =   1.0111071642494474E+01
(PID.TID 0000.0001) %MON trcstat_ptracer97_min        =   1.0941466149261498E-20
(PID.TID 0000.0001) %MON trcstat_ptracer97_mean       =   2.0415102420204792E-01
(PID.TID 0000.0001) %MON trcstat_ptracer97_sd         =   8.9925537749726059E-01
(PID.TID 0000.0001) %MON trcstat_ptracer97_del2       =   3.8640398354115933E-03
(PID.TID 0000.0001) // =======================================================
(PID.TID 0000.0001) // End MONITOR ptracers field statistics
(PID.TID 0000.0001) // =======================================================
 Computing Diagnostic #    210  TRAC01       Counter:       1   Parms: SMR     MR      
 Computing Diagnostic #    223  TRAC02       Counter:       1   Parms: SMR     MR      
 Computing Diagnostic #    236  TRAC03       Counter:       1   Parms: SMR     MR      
 Computing Diagnostic #    249  TRAC04       Counter:       1   Parms: SMR     MR      
 Computing Diagnostic #    262  TRAC05       Counter:       1   Parms: SMR     MR      
 Computing Diagnostic #    275  TRAC06       Counter:       1   Parms: SMR     MR      
 Computing Diagnostic #    288  TRAC07       Counter:       1   Parms: SMR     MR      
 Computing Diagnostic #    301  TRAC08       Counter:       1   Parms: SMR     MR      
 Computing Diagnostic #    314  TRAC09       Counter:       1   Parms: SMR     MR      
 Computing Diagnostic #    327  TRAC10       Counter:       1   Parms: SMR     MR      
 Computing Diagnostic #    340  TRAC11       Counter:       1   Parms: SMR     MR      
 Computing Diagnostic #    353  TRAC12       Counter:       1   Parms: SMR     MR      
 Computing Diagnostic #    366  TRAC13       Counter:       1   Parms: SMR     MR      
 Computing Diagnostic #    379  TRAC14       Counter:       1   Parms: SMR     MR      
 Computing Diagnostic #    392  TRAC15       Counter:       1   Parms: SMR     MR      
 Computing Diagnostic #    405  TRAC16       Counter:       1   Parms: SMR     MR      
 Computing Diagnostic #    418  TRAC17       Counter:       1   Parms: SMR     MR      
 Computing Diagnostic #    431  TRAC18       Counter:       1   Parms: SMR     MR      
 Computing Diagnostic #    444  TRAC19       Counter:       1   Parms: SMR     MR      
 Computing Diagnostic #    457  TRAC20       Counter:       1   Parms: SMR     MR      
 Computing Diagnostic #    470  TRAC21       Counter:       1   Parms: SMR     MR      
 Computing Diagnostic #    483  TRAC22       Counter:       1   Parms: SMR     MR      
 Computing Diagnostic #    496  TRAC23       Counter:       1   Parms: SMR     MR      
 Computing Diagnostic #    509  TRAC24       Counter:       1   Parms: SMR     MR      
 Computing Diagnostic #    522  TRAC25       Counter:       1   Parms: SMR     MR      
 Computing Diagnostic #    535  TRAC26       Counter:       1   Parms: SMR     MR      
 Computing Diagnostic #    548  TRAC27       Counter:       1   Parms: SMR     MR      
 Computing Diagnostic #    561  TRAC28       Counter:       1   Parms: SMR     MR      
 Computing Diagnostic #    574  TRAC29       Counter:       1   Parms: SMR     MR      
 Computing Diagnostic #    587  TRAC30       Counter:       1   Parms: SMR     MR      
 Computing Diagnostic #    600  TRAC31       Counter:       1   Parms: SMR     MR      
 Computing Diagnostic #    613  TRAC32       Counter:       1   Parms: SMR     MR      
 Computing Diagnostic #    626  TRAC33       Counter:       1   Parms: SMR     MR      
 Computing Diagnostic #    639  TRAC34       Counter:       1   Parms: SMR     MR      
 Computing Diagnostic #    652  TRAC35       Counter:       1   Parms: SMR     MR      
 Computing Diagnostic #    665  TRAC36       Counter:       1   Parms: SMR     MR      
 Computing Diagnostic #    678  TRAC37       Counter:       1   Parms: SMR     MR      
 Computing Diagnostic #    691  TRAC38       Counter:       1   Parms: SMR     MR      
 Computing Diagnostic #    704  TRAC39       Counter:       1   Parms: SMR     MR      
 Computing Diagnostic #    717  TRAC40       Counter:       1   Parms: SMR     MR      
 Computing Diagnostic #    730  TRAC41       Counter:       1   Parms: SMR     MR      
 Computing Diagnostic #    743  TRAC42       Counter:       1   Parms: SMR     MR      
 Computing Diagnostic #    756  TRAC43       Counter:       1   Parms: SMR     MR      
 Computing Diagnostic #    769  TRAC44       Counter:       1   Parms: SMR     MR      
 Computing Diagnostic #    782  TRAC45       Counter:       1   Parms: SMR     MR      
 Computing Diagnostic #    795  TRAC46       Counter:       1   Parms: SMR     MR      
 Computing Diagnostic #    808  TRAC47       Counter:       1   Parms: SMR     MR      
 Computing Diagnostic #    821  TRAC48       Counter:       1   Parms: SMR     MR      
 Computing Diagnostic #    834  TRAC49       Counter:       1   Parms: SMR     MR      
 Computing Diagnostic #    847  TRAC50       Counter:       1   Parms: SMR     MR      
 Computing Diagnostic #    860  TRAC51       Counter:       1   Parms: SMR     MR      
 Computing Diagnostic #    873  TRAC52       Counter:       1   Parms: SMR     MR      
 Computing Diagnostic #    886  TRAC53       Counter:       1   Parms: SMR     MR      
 Computing Diagnostic #    899  TRAC54       Counter:       1   Parms: SMR     MR      
 Computing Diagnostic #    912  TRAC55       Counter:       1   Parms: SMR     MR      
 Computing Diagnostic #    925  TRAC56       Counter:       1   Parms: SMR     MR      
 Computing Diagnostic #    938  TRAC57       Counter:       1   Parms: SMR     MR      
 Computing Diagnostic #    951  TRAC58       Counter:       1   Parms: SMR     MR      
 Computing Diagnostic #    964  TRAC59       Counter:       1   Parms: SMR     MR      
 Computing Diagnostic #    977  TRAC60       Counter:       1   Parms: SMR     MR      
 Computing Diagnostic #    990  TRAC61       Counter:       1   Parms: SMR     MR      
 Computing Diagnostic #   1003  TRAC62       Counter:       1   Parms: SMR     MR      
 Computing Diagnostic #   1016  TRAC63       Counter:       1   Parms: SMR     MR      
 Computing Diagnostic #   1029  TRAC64       Counter:       1   Parms: SMR     MR      
 Computing Diagnostic #   1042  TRAC65       Counter:       1   Parms: SMR     MR      
 Computing Diagnostic #   1055  TRAC66       Counter:       1   Parms: SMR     MR      
 Computing Diagnostic #   1068  TRAC67       Counter:       1   Parms: SMR     MR      
 Computing Diagnostic #   1081  TRAC68       Counter:       1   Parms: SMR     MR      
 Computing Diagnostic #   1094  TRAC69       Counter:       1   Parms: SMR     MR      
 Computing Diagnostic #   1107  TRAC70       Counter:       1   Parms: SMR     MR      
 Computing Diagnostic #   1120  TRAC71       Counter:       1   Parms: SMR     MR      
 Computing Diagnostic #   1133  TRAC72       Counter:       1   Parms: SMR     MR      
 Computing Diagnostic #   1146  TRAC73       Counter:       1   Parms: SMR     MR      
 Computing Diagnostic #   1159  TRAC74       Counter:       1   Parms: SMR     MR      
 Computing Diagnostic #   1172  TRAC75       Counter:       1   Parms: SMR     MR      
 Computing Diagnostic #   1185  TRAC76       Counter:       1   Parms: SMR     MR      
 Computing Diagnostic #   1198  TRAC77       Counter:       1   Parms: SMR     MR      
 Computing Diagnostic #   1211  TRAC78       Counter:       1   Parms: SMR     MR      
 Computing Diagnostic #   1224  TRAC79       Counter:       1   Parms: SMR     MR      
 Computing Diagnostic #   1237  TRAC80       Counter:       1   Parms: SMR     MR      
 Computing Diagnostic #   1250  TRAC81       Counter:       1   Parms: SMR     MR      
 Computing Diagnostic #   1263  TRAC82       Counter:       1   Parms: SMR     MR      
 Computing Diagnostic #   1276  TRAC83       Counter:       1   Parms: SMR     MR      
 Computing Diagnostic #   1289  TRAC84       Counter:       1   Parms: SMR     MR      
 Computing Diagnostic #   1302  TRAC85       Counter:       1   Parms: SMR     MR      
 Computing Diagnostic #   1315  TRAC86       Counter:       1   Parms: SMR     MR      
 Computing Diagnostic #   1328  TRAC87       Counter:       1   Parms: SMR     MR      
 Computing Diagnostic #   1341  TRAC88       Counter:       1   Parms: SMR     MR      
 Computing Diagnostic #   1354  TRAC89       Counter:       1   Parms: SMR     MR      
 Computing Diagnostic #   1367  TRAC90       Counter:       1   Parms: SMR     MR      
 Computing Diagnostic #   1380  TRAC91       Counter:       1   Parms: SMR     MR      
 Computing Diagnostic #   1393  TRAC92       Counter:       1   Parms: SMR     MR      
 Computing Diagnostic #   1406  TRAC93       Counter:       1   Parms: SMR     MR      
 Computing Diagnostic #   1419  TRAC94       Counter:       1   Parms: SMR     MR      
 Computing Diagnostic #   1432  TRAC95       Counter:       1   Parms: SMR     MR      
 Computing Diagnostic #   1445  TRAC96       Counter:       1   Parms: SMR     MR      
 Computing Diagnostic #   1458  TRAC97       Counter:       1   Parms: SMR     MR      
(PID.TID 0000.0001) %CHECKPOINT    188392 ckptA
(PID.TID 0000.0001)   Seconds in section "ALL                    [THE_MODEL_MAIN]":
(PID.TID 0000.0001)           User time:   80.989999999999995
(PID.TID 0000.0001)         System time:   5.9100000000000001
(PID.TID 0000.0001)     Wall clock time:   89.465626955032349
(PID.TID 0000.0001)          No. starts:           1
(PID.TID 0000.0001)           No. stops:           1
(PID.TID 0000.0001)   Seconds in section "INITIALISE_FIXED       [THE_MODEL_MAIN]":
(PID.TID 0000.0001)           User time:   1.1300000000000001
(PID.TID 0000.0001)         System time:   4.0000000000000001E-002
(PID.TID 0000.0001)     Wall clock time:   1.1974041461944580
(PID.TID 0000.0001)          No. starts:           1
(PID.TID 0000.0001)           No. stops:           1
(PID.TID 0000.0001)   Seconds in section "THE_MAIN_LOOP          [THE_MODEL_MAIN]":
(PID.TID 0000.0001)           User time:   79.850000000000009
(PID.TID 0000.0001)         System time:   5.7000000000000002
(PID.TID 0000.0001)     Wall clock time:   86.958061933517456
(PID.TID 0000.0001)          No. starts:           1
(PID.TID 0000.0001)           No. stops:           1
(PID.TID 0000.0001)   Seconds in section "INITIALISE_VARIA    [THE_MAIN_LOOP]":
(PID.TID 0000.0001)           User time:   3.4900000000000002
(PID.TID 0000.0001)         System time:   2.5400000000000000
(PID.TID 0000.0001)     Wall clock time:   6.2205488681793213
(PID.TID 0000.0001)          No. starts:           1
(PID.TID 0000.0001)           No. stops:           1
(PID.TID 0000.0001)   Seconds in section "MAIN LOOP           [THE_MAIN_LOOP]":
(PID.TID 0000.0001)           User time:   76.359999999999999
(PID.TID 0000.0001)         System time:   3.1600000000000001
(PID.TID 0000.0001)     Wall clock time:   80.737477064132690
(PID.TID 0000.0001)          No. starts:           1
(PID.TID 0000.0001)           No. stops:           1
(PID.TID 0000.0001)   Seconds in section "MAIN_DO_LOOP        [THE_MAIN_LOOP]":
(PID.TID 0000.0001)           User time:   76.360000000000014
(PID.TID 0000.0001)         System time:   3.1600000000000001
(PID.TID 0000.0001)     Wall clock time:   80.737417936325073
(PID.TID 0000.0001)          No. starts:           4
(PID.TID 0000.0001)           No. stops:           4
(PID.TID 0000.0001)   Seconds in section "FORWARD_STEP        [MAIN_DO_LOOP]":
(PID.TID 0000.0001)           User time:   76.360000000000014
(PID.TID 0000.0001)         System time:   3.1600000000000001
(PID.TID 0000.0001)     Wall clock time:   80.737329959869385
(PID.TID 0000.0001)          No. starts:           4
(PID.TID 0000.0001)           No. stops:           4
(PID.TID 0000.0001)   Seconds in section "DO_STATEVARS_DIAGS  [FORWARD_STEP]":
(PID.TID 0000.0001)           User time:  0.37000000000000455
(PID.TID 0000.0001)         System time:   0.0000000000000000
(PID.TID 0000.0001)     Wall clock time:  0.36786937713623047
(PID.TID 0000.0001)          No. starts:          12
(PID.TID 0000.0001)           No. stops:          12
(PID.TID 0000.0001)   Seconds in section "LOAD_FIELDS_DRIVER  [FORWARD_STEP]":
(PID.TID 0000.0001)           User time:   9.9999999999994316E-002
(PID.TID 0000.0001)         System time:   9.9999999999997868E-003
(PID.TID 0000.0001)     Wall clock time:  0.12661123275756836
(PID.TID 0000.0001)          No. starts:           4
(PID.TID 0000.0001)           No. stops:           4
(PID.TID 0000.0001)   Seconds in section "EXF_GETFORCING     [LOAD_FLDS_DRIVER]":
(PID.TID 0000.0001)           User time:   9.9999999999994316E-002
(PID.TID 0000.0001)         System time:   9.9999999999997868E-003
(PID.TID 0000.0001)     Wall clock time:  0.12375712394714355
(PID.TID 0000.0001)          No. starts:           4
(PID.TID 0000.0001)           No. stops:           4
(PID.TID 0000.0001)   Seconds in section "EXTERNAL_FLDS_LOAD [LOAD_FLDS_DRIVER]":
(PID.TID 0000.0001)           User time:   0.0000000000000000
(PID.TID 0000.0001)         System time:   0.0000000000000000
(PID.TID 0000.0001)     Wall clock time:   4.4107437133789062E-005
(PID.TID 0000.0001)          No. starts:           4
(PID.TID 0000.0001)           No. stops:           4
(PID.TID 0000.0001)   Seconds in section "DO_ATMOSPHERIC_PHYS [FORWARD_STEP]":
(PID.TID 0000.0001)           User time:   0.0000000000000000
(PID.TID 0000.0001)         System time:   0.0000000000000000
(PID.TID 0000.0001)     Wall clock time:   4.3153762817382812E-005
(PID.TID 0000.0001)          No. starts:           4
(PID.TID 0000.0001)           No. stops:           4
(PID.TID 0000.0001)   Seconds in section "DO_OCEANIC_PHYS     [FORWARD_STEP]":
(PID.TID 0000.0001)           User time:   5.2800000000000011
(PID.TID 0000.0001)         System time:   9.9999999999997868E-003
(PID.TID 0000.0001)     Wall clock time:   5.3051168918609619
(PID.TID 0000.0001)          No. starts:           4
(PID.TID 0000.0001)           No. stops:           4
(PID.TID 0000.0001)   Seconds in section "SEAICE_MODEL    [DO_OCEANIC_PHYS]":
(PID.TID 0000.0001)           User time:   4.1800000000000068
(PID.TID 0000.0001)         System time:   0.0000000000000000
(PID.TID 0000.0001)     Wall clock time:   4.1726102828979492
(PID.TID 0000.0001)          No. starts:           4
(PID.TID 0000.0001)           No. stops:           4
(PID.TID 0000.0001)   Seconds in section "SEAICE_DYNSOLVER   [SEAICE_MODEL]":
(PID.TID 0000.0001)           User time:   4.0800000000000125
(PID.TID 0000.0001)         System time:   0.0000000000000000
(PID.TID 0000.0001)     Wall clock time:   4.0872652530670166
(PID.TID 0000.0001)          No. starts:           4
(PID.TID 0000.0001)           No. stops:           4
(PID.TID 0000.0001)   Seconds in section "KPP_CALC [DO_OCEANIC_PHYS]":
(PID.TID 0000.0001)           User time:  0.95999999999998664
(PID.TID 0000.0001)         System time:   0.0000000000000000
(PID.TID 0000.0001)     Wall clock time:  0.95286631584167480
(PID.TID 0000.0001)          No. starts:          16
(PID.TID 0000.0001)           No. stops:          16
(PID.TID 0000.0001)   Seconds in section "GCHEM_CALC_TENDENCY [FORWARD_STEP]":
(PID.TID 0000.0001)           User time:   0.0000000000000000
(PID.TID 0000.0001)         System time:   0.0000000000000000
(PID.TID 0000.0001)     Wall clock time:   3.9815902709960938E-005
(PID.TID 0000.0001)          No. starts:           4
(PID.TID 0000.0001)           No. stops:           4
(PID.TID 0000.0001)   Seconds in section "DYNAMICS            [FORWARD_STEP]":
(PID.TID 0000.0001)           User time:   1.0299999999999940
(PID.TID 0000.0001)         System time:   0.0000000000000000
(PID.TID 0000.0001)     Wall clock time:   1.0123510360717773
(PID.TID 0000.0001)          No. starts:           4
(PID.TID 0000.0001)           No. stops:           4
(PID.TID 0000.0001)   Seconds in section "UPDATE_SURF_DR      [FORWARD_STEP]":
(PID.TID 0000.0001)           User time:   9.9999999999980105E-003
(PID.TID 0000.0001)         System time:   0.0000000000000000
(PID.TID 0000.0001)     Wall clock time:   9.8679065704345703E-003
(PID.TID 0000.0001)          No. starts:           4
(PID.TID 0000.0001)           No. stops:           4
(PID.TID 0000.0001)   Seconds in section "SOLVE_FOR_PRESSURE  [FORWARD_STEP]":
(PID.TID 0000.0001)           User time:   7.0000000000000284E-002
(PID.TID 0000.0001)         System time:   0.0000000000000000
(PID.TID 0000.0001)     Wall clock time:   7.3367595672607422E-002
(PID.TID 0000.0001)          No. starts:           4
(PID.TID 0000.0001)           No. stops:           4
(PID.TID 0000.0001)   Seconds in section "MOM_CORRECTION_STEP [FORWARD_STEP]":
(PID.TID 0000.0001)           User time:   1.0000000000005116E-002
(PID.TID 0000.0001)         System time:   0.0000000000000000
(PID.TID 0000.0001)     Wall clock time:   2.3042201995849609E-002
(PID.TID 0000.0001)          No. starts:           4
(PID.TID 0000.0001)           No. stops:           4
(PID.TID 0000.0001)   Seconds in section "INTEGR_CONTINUITY   [FORWARD_STEP]":
(PID.TID 0000.0001)           User time:   5.9999999999995168E-002
(PID.TID 0000.0001)         System time:   0.0000000000000000
(PID.TID 0000.0001)     Wall clock time:   4.9570083618164062E-002
(PID.TID 0000.0001)          No. starts:           4
(PID.TID 0000.0001)           No. stops:           4
(PID.TID 0000.0001)   Seconds in section "BLOCKING_EXCHANGES  [FORWARD_STEP]":
(PID.TID 0000.0001)           User time:  0.36999999999999034
(PID.TID 0000.0001)         System time:   0.0000000000000000
(PID.TID 0000.0001)     Wall clock time:  0.37031888961791992
(PID.TID 0000.0001)          No. starts:           8
(PID.TID 0000.0001)           No. stops:           8
(PID.TID 0000.0001)   Seconds in section "THERMODYNAMICS      [FORWARD_STEP]":
(PID.TID 0000.0001)           User time:   44.379999999999981
(PID.TID 0000.0001)         System time:   0.0000000000000000
(PID.TID 0000.0001)     Wall clock time:   44.515685319900513
(PID.TID 0000.0001)          No. starts:           4
(PID.TID 0000.0001)           No. stops:           4
(PID.TID 0000.0001)   Seconds in section "TRC_CORRECTION_STEP [FORWARD_STEP]":
(PID.TID 0000.0001)           User time:  0.54000000000000625
(PID.TID 0000.0001)         System time:   0.0000000000000000
(PID.TID 0000.0001)     Wall clock time:  0.53459572792053223
(PID.TID 0000.0001)          No. starts:           4
(PID.TID 0000.0001)           No. stops:           4
(PID.TID 0000.0001)   Seconds in section "GCHEM_FORCING_SEP  [FORWARD_STEP]":
(PID.TID 0000.0001)           User time:   11.659999999999997
(PID.TID 0000.0001)         System time:   9.9999999999997868E-003
(PID.TID 0000.0001)     Wall clock time:   11.700624704360962
(PID.TID 0000.0001)          No. starts:           4
(PID.TID 0000.0001)           No. stops:           4
(PID.TID 0000.0001)   Seconds in section "GUD_FORCING [GCHEM_FORCING_SEP]":
(PID.TID 0000.0001)           User time:   4.2600000000000335
(PID.TID 0000.0001)         System time:   0.0000000000000000
(PID.TID 0000.0001)     Wall clock time:   4.2930834293365479
(PID.TID 0000.0001)          No. starts:          16
(PID.TID 0000.0001)           No. stops:          16
(PID.TID 0000.0001)   Seconds in section "GUD_LIGHT [GUD_FORCING]":
(PID.TID 0000.0001)           User time:  0.23000000000001819
(PID.TID 0000.0001)         System time:   0.0000000000000000
(PID.TID 0000.0001)     Wall clock time:  0.28047084808349609
(PID.TID 0000.0001)          No. starts:          16
(PID.TID 0000.0001)           No. stops:          16
(PID.TID 0000.0001)   Seconds in section "GUD_FE_CHEM1 [GUD_FORCING]":
(PID.TID 0000.0001)           User time:   3.9999999999992042E-002
(PID.TID 0000.0001)         System time:   0.0000000000000000
(PID.TID 0000.0001)     Wall clock time:   1.5091419219970703E-002
(PID.TID 0000.0001)          No. starts:          16
(PID.TID 0000.0001)           No. stops:          16
(PID.TID 0000.0001)   Seconds in section "GUD_MODEL [GUD_FORCING]":
(PID.TID 0000.0001)           User time:   2.5199999999999960
(PID.TID 0000.0001)         System time:   0.0000000000000000
(PID.TID 0000.0001)     Wall clock time:   2.5427005290985107
(PID.TID 0000.0001)          No. starts:          16
(PID.TID 0000.0001)           No. stops:          16
(PID.TID 0000.0001)   Seconds in section "GUD_GRAZING [GUD_FORCING]":
(PID.TID 0000.0001)           User time:  0.28000000000002956
(PID.TID 0000.0001)         System time:   0.0000000000000000
(PID.TID 0000.0001)     Wall clock time:  0.28284001350402832
(PID.TID 0000.0001)          No. starts:          16
(PID.TID 0000.0001)           No. stops:          16
(PID.TID 0000.0001)   Seconds in section "GUD_SINKING [GUD_FORCING]":
(PID.TID 0000.0001)           User time:   1.1700000000000017
(PID.TID 0000.0001)         System time:   0.0000000000000000
(PID.TID 0000.0001)     Wall clock time:   1.1646983623504639
(PID.TID 0000.0001)          No. starts:          16
(PID.TID 0000.0001)           No. stops:          16
(PID.TID 0000.0001)   Seconds in section "DIAGS_FILL [GUD_FORCING]":
(PID.TID 0000.0001)           User time:   0.0000000000000000
(PID.TID 0000.0001)         System time:   0.0000000000000000
(PID.TID 0000.0001)     Wall clock time:   5.9199333190917969E-004
(PID.TID 0000.0001)          No. starts:          16
(PID.TID 0000.0001)           No. stops:          16
(PID.TID 0000.0001)   Seconds in section "GUD_FE_CHEM1 [GCHEM_FORCING_SEP]":
(PID.TID 0000.0001)           User time:   2.9999999999986926E-002
(PID.TID 0000.0001)         System time:   0.0000000000000000
(PID.TID 0000.0001)     Wall clock time:   1.4750957489013672E-002
(PID.TID 0000.0001)          No. starts:          16
(PID.TID 0000.0001)           No. stops:          16
(PID.TID 0000.0001)   Seconds in section "MONITOR             [FORWARD_STEP]":
(PID.TID 0000.0001)           User time:  0.15999999999999659
(PID.TID 0000.0001)         System time:   0.0000000000000000
(PID.TID 0000.0001)     Wall clock time:  0.15267825126647949
(PID.TID 0000.0001)          No. starts:           4
(PID.TID 0000.0001)           No. stops:           4
(PID.TID 0000.0001)   Seconds in section "DO_THE_MODEL_IO     [FORWARD_STEP]":
(PID.TID 0000.0001)           User time:   11.299999999999997
(PID.TID 0000.0001)         System time:   2.9599999999999991
(PID.TID 0000.0001)     Wall clock time:   15.035566329956055
(PID.TID 0000.0001)          No. starts:           4
(PID.TID 0000.0001)           No. stops:           4
(PID.TID 0000.0001)   Seconds in section "PTRACERS_RESET      [FORWARD_STEP]":
(PID.TID 0000.0001)           User time:   0.0000000000000000
(PID.TID 0000.0001)         System time:   0.0000000000000000
(PID.TID 0000.0001)     Wall clock time:   4.6730041503906250E-005
(PID.TID 0000.0001)          No. starts:           4
(PID.TID 0000.0001)           No. stops:           4
(PID.TID 0000.0001)   Seconds in section "DO_WRITE_PICKUP     [FORWARD_STEP]":
(PID.TID 0000.0001)           User time:   1.0199999999999960
(PID.TID 0000.0001)         System time:  0.16999999999999993
(PID.TID 0000.0001)     Wall clock time:   1.4590072631835938
(PID.TID 0000.0001)          No. starts:           4
(PID.TID 0000.0001)           No. stops:           4
(PID.TID 0000.0001) // ======================================================
(PID.TID 0000.0001) // Tile <-> Tile communication statistics
(PID.TID 0000.0001) // ======================================================
(PID.TID 0000.0001) // o Tile number: 000001
(PID.TID 0000.0001) //         No. X exchanges =              0
(PID.TID 0000.0001) //            Max. X spins =              0
(PID.TID 0000.0001) //            Min. X spins =     1000000000
(PID.TID 0000.0001) //          Total. X spins =              0
(PID.TID 0000.0001) //            Avg. X spins =       0.00E+00
(PID.TID 0000.0001) //         No. Y exchanges =              0
(PID.TID 0000.0001) //            Max. Y spins =              0
(PID.TID 0000.0001) //            Min. Y spins =     1000000000
(PID.TID 0000.0001) //          Total. Y spins =              0
(PID.TID 0000.0001) //            Avg. Y spins =       0.00E+00
(PID.TID 0000.0001) // o Tile number: 000002
(PID.TID 0000.0001) //         No. X exchanges =              0
(PID.TID 0000.0001) //            Max. X spins =              0
(PID.TID 0000.0001) //            Min. X spins =     1000000000
(PID.TID 0000.0001) //          Total. X spins =              0
(PID.TID 0000.0001) //            Avg. X spins =       0.00E+00
(PID.TID 0000.0001) //         No. Y exchanges =              0
(PID.TID 0000.0001) //            Max. Y spins =              0
(PID.TID 0000.0001) //            Min. Y spins =     1000000000
(PID.TID 0000.0001) //          Total. Y spins =              0
(PID.TID 0000.0001) //            Avg. Y spins =       0.00E+00
(PID.TID 0000.0001) // o Tile number: 000003
(PID.TID 0000.0001) //         No. X exchanges =              0
(PID.TID 0000.0001) //            Max. X spins =              0
(PID.TID 0000.0001) //            Min. X spins =     1000000000
(PID.TID 0000.0001) //          Total. X spins =              0
(PID.TID 0000.0001) //            Avg. X spins =       0.00E+00
(PID.TID 0000.0001) //         No. Y exchanges =              0
(PID.TID 0000.0001) //            Max. Y spins =              0
(PID.TID 0000.0001) //            Min. Y spins =     1000000000
(PID.TID 0000.0001) //          Total. Y spins =              0
(PID.TID 0000.0001) //            Avg. Y spins =       0.00E+00
(PID.TID 0000.0001) // o Tile number: 000004
(PID.TID 0000.0001) //         No. X exchanges =              0
(PID.TID 0000.0001) //            Max. X spins =              0
(PID.TID 0000.0001) //            Min. X spins =     1000000000
(PID.TID 0000.0001) //          Total. X spins =              0
(PID.TID 0000.0001) //            Avg. X spins =       0.00E+00
(PID.TID 0000.0001) //         No. Y exchanges =              0
(PID.TID 0000.0001) //            Max. Y spins =              0
(PID.TID 0000.0001) //            Min. Y spins =     1000000000
(PID.TID 0000.0001) //          Total. Y spins =              0
(PID.TID 0000.0001) //            Avg. Y spins =       0.00E+00
(PID.TID 0000.0001) // o Thread number: 000001
(PID.TID 0000.0001) //            No. barriers =          27708
(PID.TID 0000.0001) //      Max. barrier spins =              1
(PID.TID 0000.0001) //      Min. barrier spins =              1
(PID.TID 0000.0001) //     Total barrier spins =          27708
(PID.TID 0000.0001) //      Avg. barrier spins =       1.00E+00
PROGRAM MAIN: Execution ended Normally
